<routes>
    <flow id="flow_1" from="h21" to="E3" begin="0" end="100000" probability="0.15" departSpeed="max" departPos="base" departLane="best"/>
    <flow id="flow_2" from="E0" to="v12" begin="0" end="100000" probability="0.15" departSpeed="max" departPos="base" departLane="best"/>
</routes>
