<?xml version="1.0" encoding="UTF-8"?>

<!-- generated on 2024-06-23 15:38:04 by Eclipse SUMO netedit Version v1_19_0+0016-8f48a0f57b6
<configuration xmlns:xsi="http://www.w3.org/2001/XMLSchema-instance" xsi:noNamespaceSchemaLocation="http://sumo.dlr.de/xsd/neteditConfiguration.xsd">

    <input>
        <sumo-net-file value="cliente2.net.xml"/>
    </input>

    <output>
        <output-file value="cliente2.net.xml"/>
    </output>

    <processing>
        <geometry.min-radius.fix.railways value="false"/>
        <geometry.max-grade.fix value="false"/>
        <offset.disable-normalization value="true"/>
        <lefthand value="0"/>
    </processing>

    <junctions>
        <no-turnarounds value="true"/>
        <junctions.corner-detail value="5"/>
        <junctions.limit-turn-speed value="5.50"/>
        <rectangular-lane-cut value="0"/>
    </junctions>

    <pedestrian>
        <walkingareas value="0"/>
    </pedestrian>

</configuration>
-->

<net version="1.16" junctionCornerDetail="5" limitTurnSpeed="5.50" xmlns:xsi="http://www.w3.org/2001/XMLSchema-instance" xsi:noNamespaceSchemaLocation="http://sumo.dlr.de/xsd/net_file.xsd">

    <location netOffset="-721100.85,320892.53" convBoundary="549.90,289.78,751.78,508.68" origBoundary="-79.010900,-2.901422,-78.996765,-2.895193" projParameter="+proj=utm +zone=17 +ellps=WGS84 +datum=WGS84 +units=m +no_defs"/>

    <type id="highway.residential" priority="3" numLanes="1" speed="13.89" disallow="tram rail_urban rail rail_electric rail_fast ship" oneway="0"/>

    <edge id=":s3_0" function="internal">
        <lane id=":s3_0_0" index="0" disallow="tram rail_urban rail rail_electric rail_fast ship" speed="11.11" length="16.86" shape="654.31,408.78 654.06,403.43 654.98,399.26 656.05,395.71 656.22,392.19"/>
    </edge>
    <edge id=":s3_1" function="internal">
        <lane id=":s3_1_0" index="0" speed="8.95" length="16.86" shape="654.31,408.78 654.07,404.20 655.29,400.53 657.98,397.78 662.14,395.94"/>
        <lane id=":s3_1_1" index="1" speed="8.34" length="14.52" shape="654.31,408.78 654.35,405.57 655.81,402.88 658.70,400.69 663.01,399.02"/>
    </edge>
    <edge id=":s3_3" function="internal">
        <lane id=":s3_3_0" index="0" disallow="tram rail_urban rail rail_electric rail_fast ship" speed="11.11" length="16.05" shape="657.45,408.18 656.73,403.05 656.58,399.08 656.55,395.66 656.22,392.19"/>
    </edge>
    <edge id=":s3_4" function="internal">
        <lane id=":s3_4_0" index="0" speed="8.35" length="14.54" shape="657.45,408.18 656.99,403.53 657.62,399.94 659.34,397.41 662.14,395.94"/>
        <lane id=":s3_4_1" index="1" speed="7.64" length="12.00" shape="657.45,408.18 657.28,404.90 658.15,402.29 660.06,400.33 663.01,399.02"/>
    </edge>
    <edge id=":s3_6" function="internal">
        <lane id=":s3_6_0" index="0" disallow="tram rail_urban rail rail_electric rail_fast ship" speed="8.33" length="17.02" shape="648.29,405.22 652.42,403.39 655.12,400.61 656.38,396.88 656.22,392.19"/>
    </edge>
    <edge id=":s3_7" function="internal">
        <lane id=":s3_7_0" index="0" disallow="tram rail_urban rail rail_electric rail_fast ship" speed="11.11" length="16.42" shape="648.29,405.22 651.36,403.52 654.01,400.92 657.27,398.15 662.14,395.94"/>
        <lane id=":s3_7_1" index="1" disallow="tram rail_urban rail rail_electric rail_fast ship" speed="11.11" length="16.42" shape="648.29,405.22 651.54,403.99 654.58,402.43 658.15,400.71 663.01,399.02"/>
    </edge>

    <edge id="E0" from="s2" to="s3" priority="-1">
        <lane id="E0_0" index="0" speed="13.89" length="102.67" shape="673.79,509.59 654.31,408.78"/>
        <lane id="E0_1" index="1" speed="13.89" length="102.67" shape="676.93,508.98 657.45,408.18"/>
    </edge>
    <edge id="E3" from="s3" to="s4" priority="-1">
        <lane id="E3_0" index="0" speed="13.89" length="91.78" shape="662.14,395.94 750.48,371.01"/>
        <lane id="E3_1" index="1" speed="13.89" length="91.78" shape="663.01,399.02 751.35,374.09"/>
    </edge>
    <edge id="h21" from="525278461" to="s3" priority="3" type="highway.residential" spreadType="center" shape="549.90,432.03 585.65,422.65 648.67,405.11 657.91,402.12">
        <lane id="h21_0" index="0" disallow="tram rail_urban rail rail_electric rail_fast ship" speed="8.33" length="101.98" shape="549.90,432.03 585.65,422.65 648.29,405.22"/>
    </edge>
    <edge id="v12" from="s3" to="2496228905" priority="3" type="highway.residential" spreadType="center" shape="657.91,402.12 655.88,390.20 634.46,289.78">
        <lane id="v12_0" index="0" disallow="tram rail_urban rail rail_electric rail_fast ship" speed="8.33" length="104.70" shape="656.22,392.19 655.88,390.20 634.46,289.78"/>
    </edge>

    <tlLogic id="s3" type="static" programID="0" offset="0">
        <phase duration="42" state="gggGGGrrr"/>
        <phase duration="3"  state="yyyyyyrrr"/>
        <phase duration="42" state="rrrrrrGGG"/>
        <phase duration="3"  state="rrrrrryyy"/>
    </tlLogic>

    <junction id="2496228905" type="dead_end" x="634.46" y="289.78" incLanes="v12_0" intLanes="" shape="632.90,290.11 636.02,289.45"/>
    <junction id="525278461" type="dead_end" x="549.90" y="432.03" incLanes="" intLanes="" shape="550.31,433.58 549.49,430.48"/>
    <junction id="s2" type="dead_end" x="678.50" y="508.68" incLanes="" intLanes="" shape="678.50,508.68 672.22,509.89"/>
    <junction id="s3" type="traffic_light" x="657.91" y="402.12" incLanes="E0_0 E0_1 h21_0" intLanes=":s3_0_0 :s3_1_0 :s3_1_1 :s3_3_0 :s3_4_0 :s3_4_1 :s3_6_0 :s3_7_0 :s3_7_1" shape="652.74,409.09 659.02,407.87 659.02,404.50 659.57,403.17 660.49,402.06 661.79,401.19 663.45,400.56 661.71,394.40 659.79,394.54 659.07,394.25 658.49,393.72 658.07,392.94 657.80,391.93 654.64,392.46 654.87,395.25 654.56,397.67 653.69,399.72 652.27,401.41 650.31,402.73 647.80,403.69 648.78,406.74 650.70,406.59 651.43,406.86 652.02,407.37 652.45,408.11">
        <request index="0" response="111001000" foes="111001000" cont="0"/>
        <request index="1" response="110011000" foes="110011000" cont="0"/>
        <request index="2" response="110101000" foes="110101000" cont="0"/>
        <request index="3" response="111000000" foes="111000111" cont="0"/>
        <request index="4" response="110000000" foes="110000010" cont="0"/>
        <request index="5" response="110000000" foes="110000100" cont="0"/>
        <request index="6" response="000000000" foes="000001001" cont="0"/>
        <request index="7" response="000000000" foes="000111111" cont="0"/>
        <request index="8" response="000000000" foes="000111111" cont="0"/>
    </junction>
    <junction id="s4" type="dead_end" x="751.78" y="375.63" incLanes="E3_0 E3_1" intLanes="" shape="750.04,369.47 751.78,375.63"/>

    <connection from="E0" to="v12" fromLane="0" toLane="0" via=":s3_0_0" tl="s3" linkIndex="0" dir="s" state="o"/>
    <connection from="E0" to="E3" fromLane="0" toLane="0" via=":s3_1_0" tl="s3" linkIndex="1" dir="l" state="o"/>
    <connection from="E0" to="E3" fromLane="0" toLane="1" via=":s3_1_1" tl="s3" linkIndex="2" dir="l" state="o"/>
    <connection from="E0" to="v12" fromLane="1" toLane="0" via=":s3_3_0" tl="s3" linkIndex="3" dir="s" state="o"/>
    <connection from="E0" to="E3" fromLane="1" toLane="0" via=":s3_4_0" tl="s3" linkIndex="4" dir="l" state="o"/>
    <connection from="E0" to="E3" fromLane="1" toLane="1" via=":s3_4_1" tl="s3" linkIndex="5" dir="l" state="o"/>
    <connection from="h21" to="v12" fromLane="0" toLane="0" via=":s3_6_0" tl="s3" linkIndex="6" dir="r" state="O"/>
    <connection from="h21" to="E3" fromLane="0" toLane="0" via=":s3_7_0" tl="s3" linkIndex="7" dir="s" state="O"/>
    <connection from="h21" to="E3" fromLane="0" toLane="1" via=":s3_7_1" tl="s3" linkIndex="8" dir="s" state="O"/>

    <connection from=":s3_0" to="v12" fromLane="0" toLane="0" dir="s" state="M"/>
    <connection from=":s3_1" to="E3" fromLane="0" toLane="0" dir="l" state="M"/>
    <connection from=":s3_1" to="E3" fromLane="1" toLane="1" dir="l" state="M"/>
    <connection from=":s3_3" to="v12" fromLane="0" toLane="0" dir="s" state="M"/>
    <connection from=":s3_4" to="E3" fromLane="0" toLane="0" dir="l" state="M"/>
    <connection from=":s3_4" to="E3" fromLane="1" toLane="1" dir="l" state="M"/>
    <connection from=":s3_6" to="v12" fromLane="0" toLane="0" dir="r" state="M"/>
    <connection from=":s3_7" to="E3" fromLane="0" toLane="0" dir="s" state="M"/>
    <connection from=":s3_7" to="E3" fromLane="1" toLane="1" dir="s" state="M"/>

</net>
