<routes>
    <flow id="flow_1" from="v11" to="v12" begin="0" end="100000" probability="0.15" departSpeed="max" departPos="base" departLane="best"/>
    <flow id="flow_2" from="v21" to="v22" begin="0" end="100000" probability="0.15" departSpeed="max" departPos="base" departLane="best"/>
    <flow id="flow_3" from="h11" to="h12" begin="0" end="100000" probability="0.15" departSpeed="max" departPos="base" departLane="best"/>
    <flow id="flow_4" from="h21" to="h22" begin="0" end="100000" probability="0.15" departSpeed="max" departPos="base" departLane="best"/>
</routes>
