<?xml version="1.0" encoding="UTF-8"?>

<!-- generated on 2024-04-22 17:02:30 by Eclipse SUMO polyconvert Version v1_19_0+0016-8f48a0f57b6
<configuration xmlns:xsi="http://www.w3.org/2001/XMLSchema-instance" xsi:noNamespaceSchemaLocation="http://sumo.dlr.de/xsd/polyconvertConfiguration.xsd">

    <input>
        <net-file value="mapa.net.xml"/>
        <osm-files value="map.osm"/>
    </input>

    <output>
        <output-file value="mapa.poly.xml"/>
    </output>

    <report>
        <verbose value="true"/>
    </report>

</configuration>
-->

<additional xmlns:xsi="http://www.w3.org/2001/XMLSchema-instance" xsi:noNamespaceSchemaLocation="http://sumo.dlr.de/xsd/additional_file.xsd">
    <location netOffset="-721100.85,320892.53" convBoundary="-0.00,-32.77,1570.95,953.75" origBoundary="-79.010900,-2.901720,-78.996765,-2.892797" projParameter="+proj=utm +zone=17 +ellps=WGS84 +datum=WGS84 +units=m +no_defs"/>

    <poly id="1081353721" type="amenity" color="237,199,199" fill="1" layer="-1.00" shape="742.704475,465.464716 744.329455,466.280297 745.577207,467.583184 746.314058,469.240893 746.439535,471.032399 745.942188,472.769702 744.888367,474.242543 743.400062,475.262689 741.643900,475.730303 739.831047,475.578656 738.350941,474.939780 737.136996,473.891214 736.300572,472.521242 735.908621,470.962467 736.017017,469.369630 736.592633,467.875510 737.602364,466.623947 739.135246,465.659023 740.902644,465.257749 742.704475,465.464716"/>
    <poly id="1081353721#1" type="water" color="181,209,209" fill="1" layer="-4.00" shape="742.704475,465.464716 744.329455,466.280297 745.577207,467.583184 746.314058,469.240893 746.439535,471.032399 745.942188,472.769702 744.888367,474.242543 743.400062,475.262689 741.643900,475.730303 739.831047,475.578656 738.350941,474.939780 737.136996,473.891214 736.300572,472.521242 735.908621,470.962467 736.017017,469.369630 736.592633,467.875510 737.602364,466.623947 739.135246,465.659023 740.902644,465.257749 742.704475,465.464716"/>
    <poly id="1081353723" type="building" color="255,230,230" fill="1" layer="-1.00" shape="555.973810,433.276982 565.709008,480.386642 649.258060,463.339845 664.498330,460.238321 661.503708,445.732825 661.178479,444.173932 657.791322,427.777861 657.039926,424.173612 654.763067,413.117584 639.467242,416.241328 555.973810,433.276982"/>
    <poly id="1081353723#1" type="historic" color="128,255,128" fill="1" layer="-1.00" shape="555.973810,433.276982 565.709008,480.386642 649.258060,463.339845 664.498330,460.238321 661.503708,445.732825 661.178479,444.173932 657.791322,427.777861 657.039926,424.173612 654.763067,413.117584 639.467242,416.241328 555.973810,433.276982"/>
    <poly id="1081353724" type="man_made" color="255,230,230" fill="1" layer="-1.00" shape="649.258060,463.339845 646.207976,448.911867 661.503708,445.732825 664.498330,460.238321 649.258060,463.339845"/>
    <poly id="1081353725" type="man_made" color="255,230,230" fill="1" layer="-1.00" shape="642.517756,430.912625 639.467242,416.241328 654.763067,413.117584 657.791322,427.777861 642.517756,430.912625"/>
    <poly id="1081353729" type="building" color="255,230,230" fill="1" layer="-1.00" shape="662.238160,464.975997 671.908841,506.998173 606.828595,523.061302 603.302360,509.773347 618.596891,505.908596 614.885918,488.749955 599.012306,492.140144 602.812452,509.420289 606.206102,523.195118 591.801023,526.969820 589.970888,516.996891 588.068036,503.617600 585.669669,486.699971 585.329895,483.194539 589.954151,482.213117 591.029220,480.176179 662.238160,464.975997"/>
    <poly id="1081353730" type="building" color="255,230,230" fill="1" layer="-1.00" shape="636.333387,505.822076 631.614961,484.893735 655.102663,479.676289 659.821074,500.593572 636.333387,505.822076"/>
    <poly id="1081353732" type="building" color="255,230,230" fill="1" layer="-1.00" shape="766.468879,434.255654 776.547430,480.535243 803.068951,474.184296 797.087798,449.785313 804.468795,448.201782 799.872303,427.074133 794.770075,428.167007 766.468879,434.255654"/>
    <poly id="1081353733" type="building" color="255,230,230" fill="1" layer="-1.00" shape="796.550493,574.034810 814.191120,570.011064 839.089555,563.906301 835.483269,549.379751 841.896842,547.808986 843.453588,554.077291 848.806949,575.601774 799.743730,587.655162 797.167866,577.307496 796.550493,574.034810"/>
    <poly id="1081353733#1" type="tourism" color="207,245,201" fill="1" layer="-2.00" shape="796.550493,574.034810 814.191120,570.011064 839.089555,563.906301 835.483269,549.379751 841.896842,547.808986 843.453588,554.077291 848.806949,575.601774 799.743730,587.655162 797.167866,577.307496 796.550493,574.034810"/>
    <poly id="1081353737" type="leisure" color="207,245,201" fill="1" layer="-2.00" shape="591.954147,386.529251 586.959529,366.629985 607.445025,361.561600 612.439647,381.460867 591.954147,386.529251"/>
    <poly id="1081357981" type="amenity" color="237,199,199" fill="1" layer="-1.00" shape="795.422377,362.911589 789.992095,335.602847 777.055571,327.142592 792.249776,304.221519 807.891726,314.512970 803.356465,321.820595 795.760765,334.077454 800.957331,361.276008 798.078624,362.077404 795.422377,362.911589"/>
    <poly id="1081357981#1" type="building" color="255,230,230" fill="1" layer="-1.00" shape="795.422377,362.911589 789.992095,335.602847 777.055571,327.142592 792.249776,304.221519 807.891726,314.512970 803.356465,321.820595 795.760765,334.077454 800.957331,361.276008 798.078624,362.077404 795.422377,362.911589"/>
    <poly id="1081357982" type="amenity" color="237,199,199" fill="1" layer="-1.00" shape="752.920255,330.845999 774.428671,325.698355 777.055571,327.142592 789.992095,335.602847 795.422377,362.911589 768.309881,368.334548 760.018690,364.544503 752.920255,330.845999"/>
    <poly id="1081357982#1" type="building" color="255,230,230" fill="1" layer="-1.00" shape="752.920255,330.845999 774.428671,325.698355 777.055571,327.142592 789.992095,335.602847 795.422377,362.911589 768.309881,368.334548 760.018690,364.544503 752.920255,330.845999"/>
    <poly id="1138341733" type="building" color="255,230,230" fill="1" layer="-1.00" shape="659.206490,536.805215 656.319882,520.485682 670.670628,517.429969 673.799745,519.901908 679.515636,545.241453 668.045875,548.789796 664.698081,535.800145 659.206490,536.805215"/>
    <poly id="1148692926" type="parking" color="184,184,179" fill="1" layer="-1.00" shape="835.543007,406.572307 836.216803,410.309416 838.103988,421.089637 845.885738,419.748717 848.289420,433.348341 868.398306,429.099021 866.219714,417.025286 870.555258,416.276621 868.134135,399.093571 849.147647,402.920634 835.543007,406.572307"/>
    <poly id="1151354066" type="building" color="255,230,230" fill="1" layer="-1.00" shape="682.440454,513.781555 714.841989,505.982477 718.722758,518.517729 706.287008,522.897282 712.508102,550.956710 690.231540,555.641145 682.440454,513.781555"/>
    <poly id="1151354067" type="building" color="255,230,230" fill="1" layer="-1.00" shape="694.024859,575.354517 690.231540,555.641145 734.508863,547.522540 737.847122,561.408075 734.890433,562.132183 734.962704,565.284168 694.024859,575.354517"/>
    <poly id="1151354070" type="building" color="255,230,230" fill="1" layer="-1.00" shape="663.534094,588.403731 657.620209,589.564384 656.884923,582.476194 674.401410,577.424107 672.652419,569.331237 684.623640,566.379255 688.257206,583.781359 663.534094,588.403731"/>
    <poly id="1151354071" type="building" color="255,230,230" fill="1" layer="-1.00" shape="672.652419,569.331237 668.045875,548.789796 679.515636,545.241453 684.623640,566.379255 672.652419,569.331237"/>
    <poly id="1151354072" type="building" color="255,230,230" fill="1" layer="-1.00" shape="656.319882,520.485682 638.235228,524.941530 641.065458,534.503480 643.972070,543.235792 659.834552,539.834560 659.206490,536.805215 656.319882,520.485682"/>
    <poly id="1151354075" type="building" color="255,230,230" fill="1" layer="-1.00" shape="594.985167,535.436202 607.600900,532.228711 614.072145,557.113459 615.751530,563.569564 603.702063,566.289416 598.199725,548.547745 594.985167,535.436202"/>
    <poly id="1151354076" type="building" color="255,230,230" fill="1" layer="-1.00" shape="607.600900,532.228711 623.862437,528.107878 625.482169,538.578881 628.022569,554.058459 614.072145,557.113459 607.600900,532.228711"/>
    <poly id="1159044572" type="parking" color="184,184,179" fill="1" layer="-1.00" shape="685.611195,331.517592 683.212787,320.904180 681.150535,311.739041 693.032163,308.444337 703.880166,305.461133 710.073618,305.195840 713.103166,314.270795 710.892018,315.270095 713.702399,326.181404 715.124318,331.664679 704.798217,334.226680 687.424752,338.382682 685.611195,331.517592"/>
    <poly id="1159044574" type="building" color="255,230,230" fill="1" layer="-1.00" shape="715.124318,331.664679 713.702399,326.181404 713.344081,324.777410 710.892018,315.270095 713.103166,314.270795 739.225759,308.738985 740.799265,324.518893 715.124318,331.664679"/>
    <poly id="1159044575" type="building" color="255,230,230" fill="1" layer="-1.00" shape="713.103166,314.270795 710.073618,305.195840 709.400117,301.624634 724.704945,297.306370 722.300538,289.601758 726.613307,288.554514 735.161046,286.482283 739.225759,308.738985 713.103166,314.270795"/>
    <poly id="1159074383" type="amenity" color="237,199,199" fill="1" layer="-1.00" shape="744.823959,349.308417 743.466752,342.685843 732.572860,344.872806 733.918946,351.495399 744.823959,349.308417"/>
    <poly id="1159074383#1" type="building" color="255,230,230" fill="1" layer="-1.00" shape="744.823959,349.308417 743.466752,342.685843 732.572860,344.872806 733.918946,351.495399 744.823959,349.308417"/>
    <poly id="1159505506" type="building" color="255,230,230" fill="1" layer="-1.00" shape="827.510938,303.750140 825.174810,290.625982 849.631087,286.059304 851.711144,299.006954 827.510938,303.750140"/>
    <poly id="1159505507" type="building" color="255,230,230" fill="1" layer="-1.00" shape="855.500528,322.768319 852.975200,309.556013 829.317694,313.059515 832.098977,326.381970 855.500528,322.768319"/>
    <poly id="1159505508" type="building" color="255,230,230" fill="1" layer="-1.00" shape="852.975200,309.556013 851.711144,299.006954 827.510938,303.750140 829.317694,313.059515 852.975200,309.556013"/>
    <poly id="1166257047" type="building" color="255,230,230" fill="1" layer="-1.00" shape="645.629142,366.482434 644.074446,355.060155 628.869247,359.123846 631.390085,369.803401 645.629142,366.482434"/>
    <poly id="1166257048" type="building" color="255,230,230" fill="1" layer="-1.00" shape="644.074446,355.060155 641.522599,339.403637 625.384891,344.364834 628.869247,359.123846 644.074446,355.060155"/>
    <poly id="1166257049" type="building" color="255,230,230" fill="1" layer="-1.00" shape="641.522599,339.403637 636.274833,314.682639 623.557485,317.005525 619.110846,317.809679 625.384891,344.364834 641.522599,339.403637"/>
    <poly id="1166257050" type="building" color="255,230,230" fill="1" layer="-1.00" shape="636.274833,314.682639 634.867132,304.642606 627.435607,296.471269 619.110118,298.454619 623.557485,317.005525 636.274833,314.682639"/>
    <poly id="1166257051" type="building" color="255,230,230" fill="1" layer="-1.00" shape="608.506430,301.249363 608.817656,301.171395 618.888300,298.786811 623.212372,316.784932 612.819380,319.247504 608.506430,301.249363"/>
    <poly id="1166257052" type="building" color="255,230,230" fill="1" layer="-1.00" shape="608.563491,302.078766 608.128755,301.482289 585.987076,306.951759 590.331688,323.987619 612.597114,319.325316 608.563491,302.078766"/>
    <poly id="1168416175" type="building" color="255,230,230" fill="1" layer="-1.00" shape="850.047509,459.214697 850.765298,462.675227 835.692754,466.307363 829.597624,440.338051 844.936112,436.174563 850.047509,459.214697"/>
    <poly id="1168416176" type="building" color="255,230,230" fill="1" layer="-1.00" shape="818.752341,470.119748 835.692754,466.307363 829.597624,440.338051 813.212598,443.795537 813.161421,446.306258 818.752341,470.119748"/>
    <poly id="1168417904" type="building" color="255,230,230" fill="1" layer="-1.00" shape="750.785736,539.475348 741.939907,498.579829 751.199447,496.561654 755.322743,514.206220 757.499118,525.030169 760.368134,537.666746 750.785736,539.475348"/>
    <poly id="1168417905" type="building" color="255,230,230" fill="1" layer="-1.00" shape="740.603727,541.782707 750.785736,539.475348 741.939907,498.579829 730.524775,501.575084 740.603727,541.782707"/>
    <poly id="1168417906" type="building" color="255,230,230" fill="1" layer="-1.00" shape="740.603727,541.782707 733.135439,544.317547 726.976347,545.157895 718.722758,518.517729 714.841989,505.982477 730.524775,501.575084 740.603727,541.782707"/>
    <poly id="1175780996" type="building" color="255,230,230" fill="1" layer="-1.00" shape="800.957331,361.276008 822.912023,356.957075 822.048035,352.567759 817.425451,329.261328 815.405778,319.023284 803.356465,321.820595 795.760765,334.077454 800.957331,361.276008"/>
    <poly id="1177255435" type="building" color="255,230,230" fill="1" layer="-1.00" shape="784.719249,517.560938 794.113637,516.338846 793.234266,509.527407 783.507696,511.557468 784.719249,517.560938"/>
    <poly id="1177255436" type="building" color="255,230,230" fill="1" layer="-1.00" shape="784.719249,517.560938 788.377626,536.411871 799.830390,535.838696 798.424262,526.694515 796.725563,515.593222 794.113637,516.338846 784.719249,517.560938"/>
    <poly id="1177255437" type="building" color="255,230,230" fill="1" layer="-1.00" shape="796.550493,574.034810 791.766042,553.515793 809.939691,549.070825 814.191120,570.011064 796.550493,574.034810"/>
    <poly id="1177255438" type="building" color="255,230,230" fill="1" layer="-1.00" shape="791.766042,553.515793 788.377626,536.411871 799.830390,535.838696 798.424262,526.694515 810.175536,525.136469 812.687195,536.910994 815.019431,547.834212 809.939691,549.070825 791.766042,553.515793"/>
    <poly id="1177255439" type="building" color="255,230,230" fill="1" layer="-1.00" shape="760.368134,537.666746 765.649788,537.425183 771.118556,536.088347 779.532893,534.027419 777.095728,520.350437 757.499118,525.030169 760.368134,537.666746"/>
    <poly id="1177255440" type="building" color="255,230,230" fill="1" layer="-1.00" shape="777.095728,520.350437 775.041302,509.316131 755.322743,514.206220 757.499118,525.030169 777.095728,520.350437"/>
    <poly id="1177255441" type="building" color="255,230,230" fill="1" layer="-1.00" shape="768.675578,550.680847 765.649788,537.425183 771.118556,536.088347 779.532893,534.027419 783.759700,553.618374 769.982341,553.919139 768.675578,550.680847"/>
    <poly id="1177255442" type="building" color="255,230,230" fill="1" layer="-1.00" shape="768.795488,568.255045 765.793478,555.873083 769.982341,553.919139 783.759700,553.618374 786.485676,567.117888 768.795488,568.255045"/>
    <poly id="1177255443" type="building" color="255,230,230" fill="1" layer="-1.00" shape="786.485676,567.117888 788.827042,576.912964 768.984804,581.040122 757.712511,583.061839 744.729490,586.093030 741.468410,571.831318 768.795488,568.255045 786.485676,567.117888"/>
    <poly id="1177255447" type="building" color="255,230,230" fill="1" layer="-1.00" shape="848.806949,575.601774 863.279684,572.346744 859.621121,553.396265 843.453588,554.077291 848.806949,575.601774"/>
    <poly id="1177257290" type="building" color="255,230,230" fill="1" layer="-1.00" shape="841.441630,377.827906 843.936545,386.406106 832.195897,387.676585 827.917531,364.081983 838.077501,361.896306 841.441630,377.827906"/>
    <poly id="1177257291" type="building" color="255,230,230" fill="1" layer="-1.00" shape="833.712669,396.499830 818.905537,399.290937 815.752617,383.314726 812.544252,367.427093 827.917531,364.081983 832.195897,387.676585 833.712669,396.499830"/>
    <poly id="1177257292" type="building" color="255,230,230" fill="1" layer="-1.00" shape="788.621716,378.297037 792.491450,371.941751 812.544252,367.427093 818.905537,399.290937 809.757671,401.574368 810.442778,418.041569 802.147400,418.188907 799.857893,412.585498 802.992502,411.861072 797.341876,392.029307 789.617309,394.265988 788.621716,378.297037"/>
    <poly id="1204797822" type="historic" color="128,255,128" fill="1" layer="-1.00" shape="703.702340,444.397670 704.263586,447.371832 705.813860,449.968211 708.163614,451.899580 711.034417,452.923108 713.847867,452.951333 716.526336,452.106053 718.803078,450.465157 720.455982,448.194937 721.296417,445.527987 721.258128,442.729864 720.330503,440.088148 718.614108,437.879163 716.287217,436.301676 713.583664,435.532235 710.770488,435.658850 707.936786,436.758785 705.649567,438.764680 704.175246,441.410626 703.702340,444.397670"/>
    <poly id="1220521666" type="building" color="255,230,230" fill="1" layer="-1.00" shape="708.338847,349.361638 704.798217,334.226680 715.124318,331.664679 740.799265,324.518893 743.466752,342.685843 708.338847,349.361638"/>
    <poly id="1233179292" type="building" color="255,230,230" fill="1" layer="-1.00" shape="836.686991,506.752206 848.690812,503.368802 846.943267,496.105429 841.419591,472.590439 829.460059,475.863166 836.686991,506.752206"/>
    <poly id="1233179293" type="building" color="255,230,230" fill="1" layer="-1.00" shape="846.943267,496.105429 862.783963,492.958583 858.593869,475.280947 864.630054,474.109005 863.595191,467.408439 841.419591,472.590439 846.943267,496.105429"/>
    <poly id="1237912903" type="leisure" color="207,245,201" fill="1" layer="-2.00" shape="589.445591,408.089671 587.710759,401.722147 615.387196,394.495458 616.720635,400.255388 589.445591,408.089671"/>
    <poly id="1237912904" type="building" color="255,230,230" fill="1" layer="-1.00" shape="662.397628,372.403202 666.877280,371.399909 668.903149,378.850807 695.792203,372.842085 693.933231,365.446193 687.424752,338.382682 683.212787,320.904180 652.532317,327.218206 655.592808,341.236942 656.355151,344.741631 662.397628,372.403202"/>
    <poly id="1271371547" type="amenity" color="237,199,199" fill="1" layer="-1.00" shape="833.712669,396.499830 835.543007,406.572307 836.216803,410.309416 830.415099,412.022888 833.127532,424.139920 821.222456,426.760011 818.857478,416.190774 810.442778,418.041569 806.945742,402.408826 833.712669,396.499830"/>
    <poly id="1271376411" type="amenity" color="237,199,199" fill="1" layer="-1.00" shape="723.999206,490.062012 722.887778,490.395771 721.731304,490.408868 720.607626,490.101165 719.394169,489.329099 718.524774,488.180386 718.088693,486.820769 718.141762,485.382870 718.684311,484.054710 719.649872,482.980186 720.916359,482.292233 722.350485,482.079566 723.763247,482.364639 724.998867,483.092426 725.923804,484.207861 726.404346,485.556340 726.395758,486.994160 725.897729,488.344363 724.976706,489.451989 723.999206,490.062012"/>
    <poly id="1271376411#1" type="building" color="255,230,230" fill="1" layer="-1.00" shape="723.999206,490.062012 722.887778,490.395771 721.731304,490.408868 720.607626,490.101165 719.394169,489.329099 718.524774,488.180386 718.088693,486.820769 718.141762,485.382870 718.684311,484.054710 719.649872,482.980186 720.916359,482.292233 722.350485,482.079566 723.763247,482.364639 724.998867,483.092426 725.923804,484.207861 726.404346,485.556340 726.395758,486.994160 725.897729,488.344363 724.976706,489.451989 723.999206,490.062012"/>
    <poly id="252683990" type="building" color="255,230,230" fill="1" layer="-1.00" shape="759.429014,383.303376 788.621716,378.297037 789.617309,394.265988 797.341876,392.029307 802.992502,411.861072 799.857893,412.585498 791.576773,414.513478 794.770075,428.167007 766.468879,434.255654 761.540836,414.289897 766.453942,413.153116 759.429014,383.303376"/>
    <poly id="252683990#1" type="historic" color="128,255,128" fill="1" layer="-1.00" shape="759.429014,383.303376 788.621716,378.297037 789.617309,394.265988 797.341876,392.029307 802.992502,411.861072 799.857893,412.585498 791.576773,414.513478 794.770075,428.167007 766.468879,434.255654 761.540836,414.289897 766.453942,413.153116 759.429014,383.303376"/>
    <poly id="260987691" type="building" color="255,230,230" fill="1" layer="-1.00" shape="623.862437,528.107878 638.235228,524.941530 641.065458,534.503480 625.482169,538.578881 623.862437,528.107878"/>
    <poly id="302980838" type="farm" color="242,242,204" fill="1" layer="-3.00" shape="669.138186,455.485395 670.092938,460.903133 675.720515,492.923094 686.577260,494.894786 692.819058,496.819302 712.804707,492.050413 720.607626,490.101165 721.731304,490.408868 722.887778,490.395771 723.999206,490.062012 724.976706,489.451989 732.223931,487.680679 759.078469,480.997356 762.605708,475.903523 766.067298,471.418108 758.426926,433.075336 751.459247,391.535029 745.859066,387.707061 740.080009,383.337466 701.222941,394.112035 679.594066,400.321632 675.161778,409.277009 661.269074,413.526409 669.138186,455.485395"/>
    <poly id="302980838#1" type="tourism" color="207,245,201" fill="1" layer="-2.00" shape="669.138186,455.485395 670.092938,460.903133 675.720515,492.923094 686.577260,494.894786 692.819058,496.819302 712.804707,492.050413 720.607626,490.101165 721.731304,490.408868 722.887778,490.395771 723.999206,490.062012 724.976706,489.451989 732.223931,487.680679 759.078469,480.997356 762.605708,475.903523 766.067298,471.418108 758.426926,433.075336 751.459247,391.535029 745.859066,387.707061 740.080009,383.337466 701.222941,394.112035 679.594066,400.321632 675.161778,409.277009 661.269074,413.526409 669.138186,455.485395"/>
    <poly id="398524486" type="amenity" color="237,199,199" fill="1" layer="-1.00" shape="822.048035,352.567759 817.425451,329.261328 832.098977,326.381970 855.500528,322.768319 860.077938,345.676672 822.048035,352.567759"/>
    <poly id="398524486#1" type="building" color="255,230,230" fill="1" layer="-1.00" shape="822.048035,352.567759 817.425451,329.261328 832.098977,326.381970 855.500528,322.768319 860.077938,345.676672 822.048035,352.567759"/>
    <poly id="398524488" type="amenity" color="237,199,199" fill="1" layer="-1.00" shape="751.664152,318.494144 780.897399,311.264656 788.762241,300.290290 785.580755,287.034903 779.900717,288.372120 770.287026,291.342097 746.164398,295.930289 751.664152,318.494144"/>
    <poly id="398524488#1" type="building" color="255,230,230" fill="1" layer="-1.00" shape="751.664152,318.494144 780.897399,311.264656 788.762241,300.290290 785.580755,287.034903 779.900717,288.372120 770.287026,291.342097 746.164398,295.930289 751.664152,318.494144"/>
    <poly id="399446651" type="amenity" color="237,199,199" fill="1" layer="-1.00" shape="564.216520,403.212369 565.739273,402.811527 580.144373,399.058939 584.846691,417.155934 628.941695,406.582330 627.754161,401.585285 652.541924,395.812538 645.629142,366.482434 631.390085,369.803401 628.869247,359.123846 625.384891,344.364834 619.110846,317.809679 612.597114,319.325316 590.331688,323.987619 569.846590,329.277205 557.908449,332.052172 552.761945,333.255716 549.116032,334.102697 551.412826,343.853601 556.241631,364.317217 556.776642,365.024118 564.216520,403.212369"/>
    <poly id="399446651#1" type="building" color="255,230,230" fill="1" layer="-1.00" shape="564.216520,403.212369 565.739273,402.811527 580.144373,399.058939 584.846691,417.155934 628.941695,406.582330 627.754161,401.585285 652.541924,395.812538 645.629142,366.482434 631.390085,369.803401 628.869247,359.123846 625.384891,344.364834 619.110846,317.809679 612.597114,319.325316 590.331688,323.987619 569.846590,329.277205 557.908449,332.052172 552.761945,333.255716 549.116032,334.102697 551.412826,343.853601 556.241631,364.317217 556.776642,365.024118 564.216520,403.212369"/>
    <poly id="456870089" type="building" color="255,230,230" fill="1" layer="-1.00" shape="702.022282,298.684602 691.240650,301.468608 693.032163,308.444337 703.880166,305.461133 702.022282,298.684602"/>
    <poly id="467059627" type="amenity" color="237,199,199" fill="1" layer="-1.00" shape="747.258883,374.333003 744.334895,355.746223 735.009075,358.007843 732.572860,344.872806 708.338847,349.361638 715.990096,381.256376 747.258883,374.333003"/>
    <poly id="467059627#1" type="building" color="255,230,230" fill="1" layer="-1.00" shape="747.258883,374.333003 744.334895,355.746223 735.009075,358.007843 732.572860,344.872806 708.338847,349.361638 715.990096,381.256376 747.258883,374.333003"/>
    <poly id="552625880" type="building" color="255,230,230" fill="1" layer="-1.00" shape="751.199447,496.561654 755.322743,514.206220 775.041302,509.316131 770.818916,492.235801 751.199447,496.561654"/>
    <poly id="552635603" type="building" color="255,230,230" fill="1" layer="-1.00" shape="783.507696,511.557468 793.234266,509.527407 806.907040,506.671950 802.225970,481.717673 781.874852,487.338846 779.214477,492.143592 783.507696,511.557468"/>
    <poly id="552643694" type="building" color="255,230,230" fill="1" layer="-1.00" shape="841.441630,377.827906 852.213188,375.630090 857.915765,374.458732 854.550873,358.095791 838.077501,361.896306 841.441630,377.827906"/>
    <poly id="552643695" type="building" color="255,230,230" fill="1" layer="-1.00" shape="868.134135,399.093571 866.446172,387.782115 855.863264,389.758399 833.712669,396.499830 835.543007,406.572307 849.147647,402.920634 868.134135,399.093571"/>
    <poly id="567060310" type="building" color="255,230,230" fill="1" layer="-1.00" shape="701.442297,613.421176 748.147439,601.029130 744.729490,586.093030 741.468410,571.831318 728.631704,575.857654 731.861895,591.524046 713.444574,596.522427 710.622521,578.975112 736.453697,572.105589 734.962704,565.284168 694.024859,575.354517 701.442297,613.421176"/>
    <poly id="567060310#1" type="tourism" color="207,245,201" fill="1" layer="-2.00" shape="701.442297,613.421176 748.147439,601.029130 744.729490,586.093030 741.468410,571.831318 728.631704,575.857654 731.861895,591.524046 713.444574,596.522427 710.622521,578.975112 736.453697,572.105589 734.962704,565.284168 694.024859,575.354517 701.442297,613.421176"/>
    <poly id="567060344" type="amenity" color="237,199,199" fill="1" layer="-1.00" shape="688.281702,338.779333 703.531849,334.980994 707.305690,349.938580 715.234200,381.412548 699.984046,385.210885 696.859695,372.818084 695.000722,365.422192 694.810356,364.670445 688.281702,338.779333"/>
    <poly id="567060344#1" type="building" color="255,230,230" fill="1" layer="-1.00" shape="688.281702,338.779333 703.531849,334.980994 707.305690,349.938580 715.234200,381.412548 699.984046,385.210885 696.859695,372.818084 695.000722,365.422192 694.810356,364.670445 688.281702,338.779333"/>
    <poly id="634473920" type="building" color="255,230,230" fill="1" layer="-1.00" shape="812.687195,536.910994 842.423797,531.317526 836.686991,506.752206 829.460059,475.863166 802.225970,481.717673 806.907040,506.671950 810.175536,525.136469 812.687195,536.910994"/>
    <poly id="692006720" type="amenity" color="237,199,199" fill="1" layer="-1.00" shape="661.482164,395.608773 698.950343,385.478147 695.792203,372.842085 668.903149,378.850807 666.877280,371.399909 662.397628,372.403202 655.894895,373.852460 661.482164,395.608773"/>
    <poly id="692006720#1" type="building" color="255,230,230" fill="1" layer="-1.00" shape="661.482164,395.608773 698.950343,385.478147 695.792203,372.842085 668.903149,378.850807 666.877280,371.399909 662.397628,372.403202 655.894895,373.852460 661.482164,395.608773"/>
    <poly id="692006721" type="amenity" color="237,199,199" fill="1" layer="-1.00" shape="649.796137,345.803887 656.355151,344.741631 662.397628,372.403202 655.894895,373.852460 649.796137,345.803887"/>
    <poly id="692006722" type="building" color="255,230,230" fill="1" layer="-1.00" shape="644.784642,328.957218 642.067745,314.296395 651.016040,312.356187 652.213197,316.501592 664.139597,313.372713 665.648472,324.031932 652.532317,327.218206 644.784642,328.957218"/>
    <poly id="692006722#1" type="shop" color="237,199,255" fill="1" layer="-1.00" shape="644.784642,328.957218 642.067745,314.296395 651.016040,312.356187 652.213197,316.501592 664.139597,313.372713 665.648472,324.031932 652.532317,327.218206 644.784642,328.957218"/>
    <poly id="692006723" type="amenity" color="237,199,199" fill="1" layer="-1.00" shape="648.000346,342.710240 644.784642,328.957218 652.532317,327.218206 654.528762,336.903282 655.592808,341.236942 648.000346,342.710240"/>
    <poly id="692006723#1" type="building" color="255,230,230" fill="1" layer="-1.00" shape="648.000346,342.710240 644.784642,328.957218 652.532317,327.218206 654.528762,336.903282 655.592808,341.236942 648.000346,342.710240"/>
    <poly id="692006724" type="building" color="255,230,230" fill="1" layer="-1.00" shape="653.011176,314.984961 652.349304,311.701296 641.677685,313.810440 638.614973,298.530865 641.029707,293.162494 655.413023,289.675365 657.578472,300.609928 654.254710,301.268325 656.857408,314.226104 653.011176,314.984961"/>
    <poly id="697432403" type="building" color="255,230,230" fill="1" layer="-1.00" shape="803.068951,474.184296 797.087798,449.785313 804.468795,448.201782 813.161421,446.306258 818.752341,470.119748 803.068951,474.184296"/>
    <poly id="697432403#1" type="shop" color="237,199,255" fill="1" layer="-1.00" shape="803.068951,474.184296 797.087798,449.785313 804.468795,448.201782 813.161421,446.306258 818.752341,470.119748 803.068951,474.184296"/>
    <poi id="10065586917" type="amenity" color="237,199,199" layer="4.00" x="632.33" y="503.34"/>
    <poi id="10065587017" type="amenity" color="237,199,199" layer="4.00" x="626.11" y="493.02"/>
    <poi id="10571564609" type="amenity" color="237,199,199" layer="4.00" x="713.08" y="509.28"/>
    <poi id="10711085844" type="amenity" color="237,199,199" layer="4.00" x="654.47" y="523.90"/>
    <poi id="10866107606" type="amenity" color="237,199,199" layer="4.00" x="746.87" y="500.66"/>