<?xml version="1.0" encoding="UTF-8"?>

<!-- generated on 2024-04-22 17:02:36.812655 by randomTrips.py v1_19_0+0016-8f48a0f57b6
<configuration>
    <net-file value="mapa.net.xml"/>
    <route-file value="mapa.rou.xml"/>
    <verbose value="True"/>
    <end value="50000.0"/>
    <period value="50.0"/>
</configuration>
-->

<routes xmlns:xsi="http://www.w3.org/2001/XMLSchema-instance" xsi:noNamespaceSchemaLocation="http://sumo.dlr.de/xsd/routes_file.xsd">
    <trip id="0" depart="0.00" from="E2" to="1053072563"/>
    <trip id="1" depart="50.00" from="567060342" to="337277957#0"/>
    <trip id="2" depart="100.00" from="E2" to="E1"/>
    <trip id="3" depart="150.00" from="E4" to="1053072563"/>
    <trip id="4" depart="200.00" from="E0" to="1053072563"/>
    <trip id="5" depart="250.00" from="49217102" to="E0"/>
    <trip id="6" depart="300.00" from="40668087#5" to="337277957#0"/>
    <trip id="7" depart="350.00" from="E2" to="E0"/>
    <trip id="8" depart="400.00" from="49217102" to="E0"/>
    <trip id="9" depart="450.00" from="E3" to="1053072563"/>
    <trip id="10" depart="500.00" from="E3" to="E1"/>
    <trip id="11" depart="550.00" from="567060342" to="337277957#0"/>
    <trip id="12" depart="600.00" from="E4" to="337277984#0"/>
    <trip id="13" depart="650.00" from="40668087#5" to="1053072563"/>
    <trip id="14" depart="700.00" from="E3" to="E0"/>
    <trip id="15" depart="750.00" from="E3" to="E1"/>
    <trip id="16" depart="800.00" from="E1" to="E4"/>
    <trip id="17" depart="850.00" from="E0" to="E0"/>
    <trip id="18" depart="900.00" from="E3" to="E0"/>
    <trip id="19" depart="950.00" from="E3" to="E0"/>
    <trip id="20" depart="1000.00" from="E2" to="1053072563"/>
    <trip id="21" depart="1050.00" from="49217102" to="337277984#0"/>
    <trip id="22" depart="1100.00" from="40668087#5" to="337277957#0"/>
    <trip id="23" depart="1150.00" from="40668087#5" to="337277984#0"/>
    <trip id="24" depart="1200.00" from="E2" to="337277984#0"/>
    <trip id="25" depart="1250.00" from="567060342" to="337277957#0"/>
    <trip id="26" depart="1300.00" from="567060342" to="E4"/>
    <trip id="27" depart="1350.00" from="E2" to="E0"/>
    <trip id="28" depart="1400.00" from="49217102" to="E1"/>
    <trip id="29" depart="1450.00" from="49217102" to="542428845#0"/>
    <trip id="30" depart="1500.00" from="E4" to="E1"/>
    <trip id="31" depart="1550.00" from="E1" to="E1"/>
    <trip id="32" depart="1600.00" from="E3" to="E3"/>
    <trip id="33" depart="1650.00" from="49217102" to="1053072563"/>
    <trip id="34" depart="1700.00" from="567060342" to="337277984#0"/>
    <trip id="35" depart="1750.00" from="49217102" to="E4"/>
    <trip id="36" depart="1800.00" from="E4" to="337277984#0"/>
    <trip id="37" depart="1850.00" from="E2" to="542428845#0"/>
    <trip id="38" depart="1900.00" from="E4" to="542428845#0"/>
    <trip id="39" depart="1950.00" from="567060342" to="337277957#0"/>
    <trip id="40" depart="2000.00" from="E1" to="337277984#0"/>
    <trip id="41" depart="2050.00" from="E1" to="E4"/>
    <trip id="42" depart="2100.00" from="E0" to="337277957#0"/>
    <trip id="43" depart="2150.00" from="E4" to="E0"/>
    <trip id="44" depart="2200.00" from="40668087#5" to="1053072563"/>
    <trip id="45" depart="2250.00" from="40668087#5" to="E1"/>
    <trip id="46" depart="2300.00" from="E3" to="542428845#0"/>
    <trip id="47" depart="2350.00" from="40668087#5" to="542428845#0"/>
    <trip id="48" depart="2400.00" from="E4" to="E0"/>
    <trip id="49" depart="2450.00" from="E4" to="E3"/>
    <trip id="50" depart="2500.00" from="40668087#5" to="E1"/>
    <trip id="51" depart="2550.00" from="E2" to="E0"/>
    <trip id="52" depart="2600.00" from="567060342" to="E1"/>
    <trip id="53" depart="2650.00" from="40668087#5" to="542428845#0"/>
    <trip id="54" depart="2700.00" from="E0" to="E4"/>
    <trip id="55" depart="2750.00" from="E4" to="337277984#0"/>
    <trip id="56" depart="2800.00" from="E1" to="337277957#0"/>
    <trip id="57" depart="2850.00" from="E4" to="E3"/>
    <trip id="58" depart="2900.00" from="567060342" to="E1"/>
    <trip id="59" depart="2950.00" from="E1" to="337277957#0"/>
    <trip id="60" depart="3000.00" from="E3" to="E0"/>
    <trip id="61" depart="3050.00" from="E3" to="E0"/>
    <trip id="62" depart="3100.00" from="40668087#5" to="337277984#0"/>
    <trip id="63" depart="3150.00" from="40668087#5" to="E4"/>
    <trip id="64" depart="3200.00" from="E4" to="E3"/>
    <trip id="65" depart="3250.00" from="567060342" to="1053072563"/>
    <trip id="66" depart="3300.00" from="E4" to="E4"/>
    <trip id="67" depart="3350.00" from="40668087#5" to="542428845#0"/>
    <trip id="68" depart="3400.00" from="40668087#5" to="E3"/>
    <trip id="69" depart="3450.00" from="E3" to="337277957#0"/>
    <trip id="70" depart="3500.00" from="E0" to="E0"/>
    <trip id="71" depart="3550.00" from="567060342" to="E3"/>
    <trip id="72" depart="3600.00" from="E0" to="337277957#0"/>
    <trip id="73" depart="3650.00" from="E1" to="E1"/>
    <trip id="74" depart="3700.00" from="49217102" to="337277984#0"/>
    <trip id="75" depart="3750.00" from="E4" to="E1"/>
    <trip id="76" depart="3800.00" from="E0" to="E0"/>
    <trip id="77" depart="3850.00" from="40668087#5" to="337277957#0"/>
    <trip id="78" depart="3900.00" from="567060342" to="E0"/>
    <trip id="79" depart="3950.00" from="49217102" to="337277957#0"/>
    <trip id="80" depart="4000.00" from="40668087#5" to="E1"/>
    <trip id="81" depart="4050.00" from="49217102" to="E4"/>
    <trip id="82" depart="4100.00" from="E3" to="1053072563"/>
    <trip id="83" depart="4150.00" from="49217102" to="E1"/>
    <trip id="84" depart="4200.00" from="49217102" to="337277957#0"/>
    <trip id="85" depart="4250.00" from="E4" to="E0"/>
    <trip id="86" depart="4300.00" from="E0" to="E3"/>
    <trip id="87" depart="4350.00" from="E3" to="337277957#0"/>
    <trip id="88" depart="4400.00" from="40668087#5" to="542428845#0"/>
    <trip id="89" depart="4450.00" from="E0" to="542428845#0"/>
    <trip id="90" depart="4500.00" from="E2" to="E1"/>
    <trip id="91" depart="4550.00" from="E4" to="1053072563"/>
    <trip id="92" depart="4600.00" from="E0" to="337277984#0"/>
    <trip id="93" depart="4650.00" from="E3" to="337277957#0"/>
    <trip id="94" depart="4700.00" from="49217102" to="542428845#0"/>
    <trip id="95" depart="4750.00" from="E0" to="337277984#0"/>
    <trip id="96" depart="4800.00" from="49217102" to="E4"/>
    <trip id="97" depart="4850.00" from="E0" to="E3"/>
    <trip id="98" depart="4900.00" from="E1" to="1053072563"/>
    <trip id="99" depart="4950.00" from="E4" to="E3"/>
    <trip id="100" depart="5000.00" from="E4" to="E4"/>
    <trip id="101" depart="5050.00" from="E3" to="337277957#0"/>
    <trip id="102" depart="5100.00" from="E0" to="337277957#0"/>
    <trip id="103" depart="5150.00" from="E0" to="1053072563"/>
    <trip id="104" depart="5200.00" from="E0" to="E4"/>
    <trip id="105" depart="5250.00" from="567060342" to="E3"/>
    <trip id="106" depart="5300.00" from="E0" to="542428845#0"/>
    <trip id="107" depart="5350.00" from="E4" to="E4"/>
    <trip id="108" depart="5400.00" from="E1" to="E1"/>
    <trip id="109" depart="5450.00" from="49217102" to="337277984#0"/>
    <trip id="110" depart="5500.00" from="E4" to="E0"/>
    <trip id="111" depart="5550.00" from="E1" to="E1"/>
    <trip id="112" depart="5600.00" from="40668087#5" to="E0"/>
    <trip id="113" depart="5650.00" from="E1" to="E3"/>
    <trip id="114" depart="5700.00" from="49217102" to="E4"/>
    <trip id="115" depart="5750.00" from="40668087#5" to="337277957#0"/>
    <trip id="116" depart="5800.00" from="E1" to="E1"/>
    <trip id="117" depart="5850.00" from="49217102" to="1053072563"/>
    <trip id="118" depart="5900.00" from="E4" to="337277957#0"/>
    <trip id="119" depart="5950.00" from="E1" to="E0"/>
    <trip id="120" depart="6000.00" from="E0" to="E0"/>
    <trip id="121" depart="6050.00" from="E1" to="E4"/>
    <trip id="122" depart="6100.00" from="49217102" to="E1"/>
    <trip id="123" depart="6150.00" from="49217102" to="542428845#0"/>
    <trip id="124" depart="6200.00" from="E2" to="337277984#0"/>
    <trip id="125" depart="6250.00" from="567060342" to="E3"/>
    <trip id="126" depart="6300.00" from="40668087#5" to="542428845#0"/>
    <trip id="127" depart="6350.00" from="E4" to="E4"/>
    <trip id="128" depart="6400.00" from="40668087#5" to="337277957#0"/>
    <trip id="129" depart="6450.00" from="567060342" to="E4"/>
    <trip id="130" depart="6500.00" from="E4" to="E4"/>
    <trip id="131" depart="6550.00" from="567060342" to="337277957#0"/>
    <trip id="132" depart="6600.00" from="E3" to="E1"/>
    <trip id="133" depart="6650.00" from="E1" to="E4"/>
    <trip id="134" depart="6700.00" from="E2" to="1053072563"/>
    <trip id="135" depart="6750.00" from="E3" to="337277984#0"/>
    <trip id="136" depart="6800.00" from="E2" to="E4"/>
    <trip id="137" depart="6850.00" from="49217102" to="1053072563"/>
    <trip id="138" depart="6900.00" from="40668087#5" to="E0"/>
    <trip id="139" depart="6950.00" from="567060342" to="E0"/>
    <trip id="140" depart="7000.00" from="E2" to="337277957#0"/>
    <trip id="141" depart="7050.00" from="E2" to="337277984#0"/>
    <trip id="142" depart="7100.00" from="E0" to="E4"/>
    <trip id="143" depart="7150.00" from="E3" to="1053072563"/>
    <trip id="144" depart="7200.00" from="E0" to="337277984#0"/>
    <trip id="145" depart="7250.00" from="40668087#5" to="E3"/>
    <trip id="146" depart="7300.00" from="E2" to="337277984#0"/>
    <trip id="147" depart="7350.00" from="E2" to="E0"/>
    <trip id="148" depart="7400.00" from="E0" to="1053072563"/>
    <trip id="149" depart="7450.00" from="40668087#5" to="E4"/>
    <trip id="150" depart="7500.00" from="E4" to="E0"/>
    <trip id="151" depart="7550.00" from="E3" to="E0"/>
    <trip id="152" depart="7600.00" from="49217102" to="337277957#0"/>
    <trip id="153" depart="7650.00" from="567060342" to="E4"/>
    <trip id="154" depart="7700.00" from="E3" to="E3"/>
    <trip id="155" depart="7750.00" from="E4" to="337277957#0"/>
    <trip id="156" depart="7800.00" from="49217102" to="1053072563"/>
    <trip id="157" depart="7850.00" from="E3" to="E4"/>
    <trip id="158" depart="7900.00" from="E0" to="E0"/>
    <trip id="159" depart="7950.00" from="49217102" to="E4"/>
    <trip id="160" depart="8000.00" from="E3" to="E4"/>
    <trip id="161" depart="8050.00" from="E3" to="E4"/>
    <trip id="162" depart="8100.00" from="40668087#5" to="E1"/>
    <trip id="163" depart="8150.00" from="567060342" to="E4"/>
    <trip id="164" depart="8200.00" from="E3" to="E3"/>
    <trip id="165" depart="8250.00" from="E3" to="337277984#0"/>
    <trip id="166" depart="8300.00" from="E3" to="1053072563"/>
    <trip id="167" depart="8350.00" from="E3" to="E3"/>
    <trip id="168" depart="8400.00" from="49217102" to="E3"/>
    <trip id="169" depart="8450.00" from="E0" to="337277984#0"/>
    <trip id="170" depart="8500.00" from="E3" to="337277957#0"/>
    <trip id="171" depart="8550.00" from="40668087#5" to="337277957#0"/>
    <trip id="172" depart="8600.00" from="567060342" to="E3"/>
    <trip id="173" depart="8650.00" from="E4" to="337277984#0"/>
    <trip id="174" depart="8700.00" from="E2" to="542428845#0"/>
    <trip id="175" depart="8750.00" from="E4" to="E0"/>
    <trip id="176" depart="8800.00" from="E4" to="1053072563"/>
    <trip id="177" depart="8850.00" from="E4" to="337277957#0"/>
    <trip id="178" depart="8900.00" from="E4" to="337277984#0"/>
    <trip id="179" depart="8950.00" from="40668087#5" to="542428845#0"/>
    <trip id="180" depart="9000.00" from="E2" to="337277984#0"/>
    <trip id="181" depart="9050.00" from="E1" to="E0"/>
    <trip id="182" depart="9100.00" from="E0" to="E0"/>
    <trip id="183" depart="9150.00" from="567060342" to="E1"/>
    <trip id="184" depart="9200.00" from="40668087#5" to="E4"/>
    <trip id="185" depart="9250.00" from="E1" to="E1"/>
    <trip id="186" depart="9300.00" from="E2" to="E1"/>
    <trip id="187" depart="9350.00" from="567060342" to="1053072563"/>
    <trip id="188" depart="9400.00" from="E2" to="337277984#0"/>
    <trip id="189" depart="9450.00" from="567060342" to="E3"/>
    <trip id="190" depart="9500.00" from="E2" to="337277984#0"/>
    <trip id="191" depart="9550.00" from="567060342" to="542428845#0"/>
    <trip id="192" depart="9600.00" from="E0" to="337277984#0"/>
    <trip id="193" depart="9650.00" from="49217102" to="542428845#0"/>
    <trip id="194" depart="9700.00" from="E4" to="E1"/>
    <trip id="195" depart="9750.00" from="E4" to="E0"/>
    <trip id="196" depart="9800.00" from="567060342" to="E0"/>
    <trip id="197" depart="9850.00" from="40668087#5" to="337277984#0"/>
    <trip id="198" depart="9900.00" from="E0" to="E0"/>
    <trip id="199" depart="9950.00" from="E2" to="542428845#0"/>
    <trip id="200" depart="10000.00" from="E0" to="337277957#0"/>
    <trip id="201" depart="10050.00" from="E0" to="E4"/>
    <trip id="202" depart="10100.00" from="E3" to="337277957#0"/>
    <trip id="203" depart="10150.00" from="40668087#5" to="E0"/>
    <trip id="204" depart="10200.00" from="E2" to="337277984#0"/>
    <trip id="205" depart="10250.00" from="E3" to="E3"/>
    <trip id="206" depart="10300.00" from="E2" to="337277957#0"/>
    <trip id="207" depart="10350.00" from="49217102" to="1053072563"/>
    <trip id="208" depart="10400.00" from="49217102" to="542428845#0"/>
    <trip id="209" depart="10450.00" from="E3" to="1053072563"/>
    <trip id="210" depart="10500.00" from="E0" to="E1"/>
    <trip id="211" depart="10550.00" from="49217102" to="E1"/>
    <trip id="212" depart="10600.00" from="E0" to="337277957#0"/>
    <trip id="213" depart="10650.00" from="E2" to="1053072563"/>
    <trip id="214" depart="10700.00" from="E3" to="E3"/>
    <trip id="215" depart="10750.00" from="40668087#5" to="542428845#0"/>
    <trip id="216" depart="10800.00" from="49217102" to="E4"/>
    <trip id="217" depart="10850.00" from="E1" to="1053072563"/>
    <trip id="218" depart="10900.00" from="49217102" to="E3"/>
    <trip id="219" depart="10950.00" from="E0" to="E3"/>
    <trip id="220" depart="11000.00" from="E2" to="E4"/>
    <trip id="221" depart="11050.00" from="E1" to="E4"/>
    <trip id="222" depart="11100.00" from="E4" to="E0"/>
    <trip id="223" depart="11150.00" from="E2" to="E0"/>
    <trip id="224" depart="11200.00" from="E3" to="E0"/>
    <trip id="225" depart="11250.00" from="E4" to="E1"/>
    <trip id="226" depart="11300.00" from="E0" to="337277984#0"/>
    <trip id="227" depart="11350.00" from="49217102" to="E1"/>
    <trip id="228" depart="11400.00" from="E3" to="E0"/>
    <trip id="229" depart="11450.00" from="E2" to="337277984#0"/>
    <trip id="230" depart="11500.00" from="40668087#5" to="337277984#0"/>
    <trip id="231" depart="11550.00" from="567060342" to="337277984#0"/>
    <trip id="232" depart="11600.00" from="E1" to="337277957#0"/>
    <trip id="233" depart="11650.00" from="49217102" to="E1"/>
    <trip id="234" depart="11700.00" from="E2" to="1053072563"/>
    <trip id="235" depart="11750.00" from="E0" to="E0"/>
    <trip id="236" depart="11800.00" from="E0" to="337277957#0"/>
    <trip id="237" depart="11850.00" from="E0" to="E4"/>
    <trip id="238" depart="11900.00" from="E1" to="E1"/>
    <trip id="239" depart="11950.00" from="E3" to="E3"/>
    <trip id="240" depart="12000.00" from="E0" to="1053072563"/>
    <trip id="241" depart="12050.00" from="567060342" to="E3"/>
    <trip id="242" depart="12100.00" from="E3" to="E4"/>
    <trip id="243" depart="12150.00" from="E0" to="E1"/>
    <trip id="244" depart="12200.00" from="E1" to="E0"/>
    <trip id="245" depart="12250.00" from="49217102" to="337277957#0"/>
    <trip id="246" depart="12300.00" from="E0" to="1053072563"/>
    <trip id="247" depart="12350.00" from="567060342" to="E1"/>
    <trip id="248" depart="12400.00" from="E0" to="337277957#0"/>
    <trip id="249" depart="12450.00" from="E0" to="337277957#0"/>
    <trip id="250" depart="12500.00" from="E1" to="1053072563"/>
    <trip id="251" depart="12550.00" from="E0" to="E0"/>
    <trip id="252" depart="12600.00" from="40668087#5" to="E1"/>
    <trip id="253" depart="12650.00" from="49217102" to="542428845#0"/>
    <trip id="254" depart="12700.00" from="40668087#5" to="542428845#0"/>
    <trip id="255" depart="12750.00" from="49217102" to="337277984#0"/>
    <trip id="256" depart="12800.00" from="E3" to="542428845#0"/>
    <trip id="257" depart="12850.00" from="E3" to="E3"/>
    <trip id="258" depart="12900.00" from="567060342" to="1053072563"/>
    <trip id="259" depart="12950.00" from="40668087#5" to="E0"/>
    <trip id="260" depart="13000.00" from="E4" to="337277984#0"/>
    <trip id="261" depart="13050.00" from="E2" to="E3"/>
    <trip id="262" depart="13100.00" from="E2" to="E3"/>
    <trip id="263" depart="13150.00" from="E4" to="337277957#0"/>
    <trip id="264" depart="13200.00" from="40668087#5" to="337277957#0"/>
    <trip id="265" depart="13250.00" from="49217102" to="E1"/>
    <trip id="266" depart="13300.00" from="E1" to="337277957#0"/>
    <trip id="267" depart="13350.00" from="E2" to="E3"/>
    <trip id="268" depart="13400.00" from="49217102" to="E0"/>
    <trip id="269" depart="13450.00" from="E2" to="1053072563"/>
    <trip id="270" depart="13500.00" from="E3" to="E4"/>
    <trip id="271" depart="13550.00" from="40668087#5" to="1053072563"/>
    <trip id="272" depart="13600.00" from="567060342" to="E1"/>
    <trip id="273" depart="13650.00" from="E4" to="542428845#0"/>
    <trip id="274" depart="13700.00" from="E2" to="1053072563"/>
    <trip id="275" depart="13750.00" from="E2" to="E1"/>
    <trip id="276" depart="13800.00" from="40668087#5" to="E3"/>
    <trip id="277" depart="13850.00" from="E3" to="E0"/>
    <trip id="278" depart="13900.00" from="40668087#5" to="E4"/>
    <trip id="279" depart="13950.00" from="E3" to="337277984#0"/>
    <trip id="280" depart="14000.00" from="E0" to="337277984#0"/>
    <trip id="281" depart="14050.00" from="E1" to="337277984#0"/>
    <trip id="282" depart="14100.00" from="E3" to="E3"/>
    <trip id="283" depart="14150.00" from="40668087#5" to="E4"/>
    <trip id="284" depart="14200.00" from="E2" to="E3"/>
    <trip id="285" depart="14250.00" from="E2" to="542428845#0"/>
    <trip id="286" depart="14300.00" from="E2" to="E4"/>
    <trip id="287" depart="14350.00" from="567060342" to="E3"/>
    <trip id="288" depart="14400.00" from="E1" to="542428845#0"/>
    <trip id="289" depart="14450.00" from="E0" to="E1"/>
    <trip id="290" depart="14500.00" from="567060342" to="E3"/>
    <trip id="291" depart="14550.00" from="E3" to="1053072563"/>
    <trip id="292" depart="14600.00" from="E4" to="337277957#0"/>
    <trip id="293" depart="14650.00" from="E0" to="E0"/>
    <trip id="294" depart="14700.00" from="E0" to="1053072563"/>
    <trip id="295" depart="14750.00" from="E3" to="337277957#0"/>
    <trip id="296" depart="14800.00" from="49217102" to="E3"/>
    <trip id="297" depart="14850.00" from="567060342" to="E4"/>
    <trip id="298" depart="14900.00" from="E2" to="337277984#0"/>
    <trip id="299" depart="14950.00" from="40668087#5" to="E4"/>
    <trip id="300" depart="15000.00" from="40668087#5" to="E1"/>
    <trip id="301" depart="15050.00" from="E0" to="E3"/>
    <trip id="302" depart="15100.00" from="E2" to="E1"/>
    <trip id="303" depart="15150.00" from="E0" to="E3"/>
    <trip id="304" depart="15200.00" from="40668087#5" to="337277957#0"/>
    <trip id="305" depart="15250.00" from="E2" to="337277984#0"/>
    <trip id="306" depart="15300.00" from="E1" to="542428845#0"/>
    <trip id="307" depart="15350.00" from="E1" to="542428845#0"/>
    <trip id="308" depart="15400.00" from="E2" to="337277984#0"/>
    <trip id="309" depart="15450.00" from="E2" to="337277984#0"/>
    <trip id="310" depart="15500.00" from="567060342" to="1053072563"/>
    <trip id="311" depart="15550.00" from="49217102" to="1053072563"/>
    <trip id="312" depart="15600.00" from="E1" to="E3"/>
    <trip id="313" depart="15650.00" from="49217102" to="337277957#0"/>
    <trip id="314" depart="15700.00" from="E0" to="E1"/>
    <trip id="315" depart="15750.00" from="E4" to="E0"/>
    <trip id="316" depart="15800.00" from="567060342" to="1053072563"/>
    <trip id="317" depart="15850.00" from="49217102" to="337277957#0"/>
    <trip id="318" depart="15900.00" from="49217102" to="1053072563"/>
    <trip id="319" depart="15950.00" from="E1" to="337277984#0"/>
    <trip id="320" depart="16000.00" from="E4" to="E0"/>
    <trip id="321" depart="16050.00" from="E2" to="337277957#0"/>
    <trip id="322" depart="16100.00" from="E3" to="542428845#0"/>
    <trip id="323" depart="16150.00" from="E3" to="E0"/>
    <trip id="324" depart="16200.00" from="E0" to="542428845#0"/>
    <trip id="325" depart="16250.00" from="49217102" to="1053072563"/>
    <trip id="326" depart="16300.00" from="E4" to="542428845#0"/>
    <trip id="327" depart="16350.00" from="E3" to="542428845#0"/>
    <trip id="328" depart="16400.00" from="40668087#5" to="E1"/>
    <trip id="329" depart="16450.00" from="40668087#5" to="337277957#0"/>
    <trip id="330" depart="16500.00" from="E1" to="337277984#0"/>
    <trip id="331" depart="16550.00" from="E4" to="1053072563"/>
    <trip id="332" depart="16600.00" from="E3" to="E0"/>
    <trip id="333" depart="16650.00" from="E3" to="337277957#0"/>
    <trip id="334" depart="16700.00" from="E1" to="542428845#0"/>
    <trip id="335" depart="16750.00" from="E0" to="E3"/>
    <trip id="336" depart="16800.00" from="E4" to="337277984#0"/>
    <trip id="337" depart="16850.00" from="E1" to="E0"/>
    <trip id="338" depart="16900.00" from="E2" to="E4"/>
    <trip id="339" depart="16950.00" from="49217102" to="337277957#0"/>
    <trip id="340" depart="17000.00" from="E2" to="337277957#0"/>
    <trip id="341" depart="17050.00" from="49217102" to="1053072563"/>
    <trip id="342" depart="17100.00" from="40668087#5" to="542428845#0"/>
    <trip id="343" depart="17150.00" from="E1" to="337277984#0"/>
    <trip id="344" depart="17200.00" from="49217102" to="E1"/>
    <trip id="345" depart="17250.00" from="E2" to="542428845#0"/>
    <trip id="346" depart="17300.00" from="E2" to="E4"/>
    <trip id="347" depart="17350.00" from="E3" to="E1"/>
    <trip id="348" depart="17400.00" from="E2" to="E4"/>
    <trip id="349" depart="17450.00" from="E0" to="E0"/>
    <trip id="350" depart="17500.00" from="E2" to="E4"/>
    <trip id="351" depart="17550.00" from="E3" to="1053072563"/>
    <trip id="352" depart="17600.00" from="49217102" to="337277984#0"/>
    <trip id="353" depart="17650.00" from="E2" to="E0"/>
    <trip id="354" depart="17700.00" from="567060342" to="1053072563"/>
    <trip id="355" depart="17750.00" from="E2" to="E1"/>
    <trip id="356" depart="17800.00" from="E4" to="E0"/>
    <trip id="357" depart="17850.00" from="E0" to="1053072563"/>
    <trip id="358" depart="17900.00" from="40668087#5" to="542428845#0"/>
    <trip id="359" depart="17950.00" from="567060342" to="337277984#0"/>
    <trip id="360" depart="18000.00" from="40668087#5" to="E4"/>
    <trip id="361" depart="18050.00" from="E3" to="E0"/>
    <trip id="362" depart="18100.00" from="E4" to="E4"/>
    <trip id="363" depart="18150.00" from="E2" to="337277984#0"/>
    <trip id="364" depart="18200.00" from="40668087#5" to="E3"/>
    <trip id="365" depart="18250.00" from="E0" to="E1"/>
    <trip id="366" depart="18300.00" from="E4" to="337277957#0"/>
    <trip id="367" depart="18350.00" from="E1" to="E1"/>
    <trip id="368" depart="18400.00" from="E0" to="1053072563"/>
    <trip id="369" depart="18450.00" from="567060342" to="337277984#0"/>
    <trip id="370" depart="18500.00" from="E2" to="E3"/>
    <trip id="371" depart="18550.00" from="567060342" to="E1"/>
    <trip id="372" depart="18600.00" from="567060342" to="E4"/>
    <trip id="373" depart="18650.00" from="E3" to="E0"/>
    <trip id="374" depart="18700.00" from="E0" to="337277984#0"/>
    <trip id="375" depart="18750.00" from="567060342" to="E4"/>
    <trip id="376" depart="18800.00" from="E0" to="E0"/>
    <trip id="377" depart="18850.00" from="E4" to="E1"/>
    <trip id="378" depart="18900.00" from="E1" to="542428845#0"/>
    <trip id="379" depart="18950.00" from="49217102" to="337277984#0"/>
    <trip id="380" depart="19000.00" from="E3" to="E1"/>
    <trip id="381" depart="19050.00" from="E3" to="337277957#0"/>
    <trip id="382" depart="19100.00" from="E1" to="E4"/>
    <trip id="383" depart="19150.00" from="E0" to="E1"/>
    <trip id="384" depart="19200.00" from="40668087#5" to="E4"/>
    <trip id="385" depart="19250.00" from="E1" to="337277957#0"/>
    <trip id="386" depart="19300.00" from="49217102" to="E0"/>
    <trip id="387" depart="19350.00" from="E1" to="1053072563"/>
    <trip id="388" depart="19400.00" from="E4" to="E4"/>
    <trip id="389" depart="19450.00" from="E0" to="1053072563"/>
    <trip id="390" depart="19500.00" from="E3" to="542428845#0"/>
    <trip id="391" depart="19550.00" from="E2" to="E0"/>
    <trip id="392" depart="19600.00" from="567060342" to="E3"/>
    <trip id="393" depart="19650.00" from="E4" to="337277957#0"/>
    <trip id="394" depart="19700.00" from="E1" to="542428845#0"/>
    <trip id="395" depart="19750.00" from="E4" to="E0"/>
    <trip id="396" depart="19800.00" from="E4" to="E3"/>
    <trip id="397" depart="19850.00" from="567060342" to="E3"/>
    <trip id="398" depart="19900.00" from="E0" to="E4"/>
    <trip id="399" depart="19950.00" from="E1" to="E3"/>
    <trip id="400" depart="20000.00" from="567060342" to="337277984#0"/>
    <trip id="401" depart="20050.00" from="E1" to="E4"/>
    <trip id="402" depart="20100.00" from="E0" to="337277957#0"/>
    <trip id="403" depart="20150.00" from="E1" to="337277984#0"/>
    <trip id="404" depart="20200.00" from="E1" to="E0"/>
    <trip id="405" depart="20250.00" from="E0" to="337277984#0"/>
    <trip id="406" depart="20300.00" from="49217102" to="E1"/>
    <trip id="407" depart="20350.00" from="E1" to="337277957#0"/>
    <trip id="408" depart="20400.00" from="E3" to="1053072563"/>
    <trip id="409" depart="20450.00" from="E2" to="E1"/>
    <trip id="410" depart="20500.00" from="E3" to="542428845#0"/>
    <trip id="411" depart="20550.00" from="E2" to="E3"/>
    <trip id="412" depart="20600.00" from="E4" to="542428845#0"/>
    <trip id="413" depart="20650.00" from="40668087#5" to="E0"/>
    <trip id="414" depart="20700.00" from="E1" to="E3"/>
    <trip id="415" depart="20750.00" from="E3" to="542428845#0"/>
    <trip id="416" depart="20800.00" from="E1" to="542428845#0"/>
    <trip id="417" depart="20850.00" from="E2" to="542428845#0"/>
    <trip id="418" depart="20900.00" from="E2" to="337277957#0"/>
    <trip id="419" depart="20950.00" from="E0" to="E4"/>
    <trip id="420" depart="21000.00" from="567060342" to="E1"/>
    <trip id="421" depart="21050.00" from="E2" to="E3"/>
    <trip id="422" depart="21100.00" from="E3" to="E3"/>
    <trip id="423" depart="21150.00" from="E0" to="337277984#0"/>
    <trip id="424" depart="21200.00" from="E2" to="E3"/>
    <trip id="425" depart="21250.00" from="E3" to="1053072563"/>
    <trip id="426" depart="21300.00" from="40668087#5" to="E1"/>
    <trip id="427" depart="21350.00" from="E4" to="E4"/>
    <trip id="428" depart="21400.00" from="E2" to="542428845#0"/>
    <trip id="429" depart="21450.00" from="40668087#5" to="E1"/>
    <trip id="430" depart="21500.00" from="E3" to="542428845#0"/>
    <trip id="431" depart="21550.00" from="E2" to="E4"/>
    <trip id="432" depart="21600.00" from="40668087#5" to="E3"/>
    <trip id="433" depart="21650.00" from="567060342" to="337277984#0"/>
    <trip id="434" depart="21700.00" from="49217102" to="E0"/>
    <trip id="435" depart="21750.00" from="E1" to="E3"/>
    <trip id="436" depart="21800.00" from="49217102" to="1053072563"/>
    <trip id="437" depart="21850.00" from="E3" to="E0"/>
    <trip id="438" depart="21900.00" from="49217102" to="E4"/>
    <trip id="439" depart="21950.00" from="49217102" to="542428845#0"/>
    <trip id="440" depart="22000.00" from="567060342" to="337277984#0"/>
    <trip id="441" depart="22050.00" from="40668087#5" to="E3"/>
    <trip id="442" depart="22100.00" from="E4" to="E1"/>
    <trip id="443" depart="22150.00" from="49217102" to="542428845#0"/>
    <trip id="444" depart="22200.00" from="567060342" to="E0"/>
    <trip id="445" depart="22250.00" from="E2" to="542428845#0"/>
    <trip id="446" depart="22300.00" from="567060342" to="E3"/>
    <trip id="447" depart="22350.00" from="49217102" to="542428845#0"/>
    <trip id="448" depart="22400.00" from="E0" to="337277957#0"/>
    <trip id="449" depart="22450.00" from="E1" to="E0"/>
    <trip id="450" depart="22500.00" from="E4" to="337277984#0"/>
    <trip id="451" depart="22550.00" from="E4" to="E1"/>
    <trip id="452" depart="22600.00" from="567060342" to="E0"/>
    <trip id="453" depart="22650.00" from="E2" to="E1"/>
    <trip id="454" depart="22700.00" from="40668087#5" to="E0"/>
    <trip id="455" depart="22750.00" from="E0" to="E4"/>
    <trip id="456" depart="22800.00" from="567060342" to="E3"/>
    <trip id="457" depart="22850.00" from="E1" to="337277984#0"/>
    <trip id="458" depart="22900.00" from="E2" to="E0"/>
    <trip id="459" depart="22950.00" from="E2" to="E1"/>
    <trip id="460" depart="23000.00" from="E2" to="E3"/>
    <trip id="461" depart="23050.00" from="E2" to="E4"/>
    <trip id="462" depart="23100.00" from="E2" to="337277984#0"/>
    <trip id="463" depart="23150.00" from="E0" to="E0"/>
    <trip id="464" depart="23200.00" from="E2" to="1053072563"/>
    <trip id="465" depart="23250.00" from="567060342" to="E1"/>
    <trip id="466" depart="23300.00" from="49217102" to="337277957#0"/>
    <trip id="467" depart="23350.00" from="E1" to="E4"/>
    <trip id="468" depart="23400.00" from="E1" to="E4"/>