<?xml version="1.0" encoding="UTF-8"?>

<!-- generated on 2024-01-30 16:31:18.754235 by osmWebWizard.py v1_19_0+0016-8f48a0f57b6
<configuration>
    <net-file value="/home/david/Sumo/2024-01-30-16-30-21/osm.net.xml.gz"/>
    <output-trip-file value="/home/david/Sumo/2024-01-30-16-30-21/osm.passenger.trips.xml"/>
    <route-file value="/home/david/Sumo/2024-01-30-16-30-21/osm.passenger.rou.xml"/>
    <prefix value="veh"/>
    <trip-attributes value="departLane=&quot;best&quot;"/>
    <fringe-start-attributes value="departSpeed=&quot;max&quot;"/>
    <vehicle-class value="passenger"/>
    <lanes value="True"/>
    <fringe-factor value="4.5"/>
    <allow-fringe.min-length value="1000.0"/>
    <via-edge-types value="highway.motorway,highway.motorway_link,highway.trunk_link,highway.primary_link,highway.secondary_link,highway.tertiary_link"/>
    <min-distance value="300.0"/>
    <min-distance.fringe value="10.0"/>
    <remove-loops value="True"/>
    <validate value="True"/>
    <insertion-density value="9.0"/>
</configuration>
-->

<!-- generated on 2024-01-30 16:31:04 by Eclipse SUMO duarouter Version v1_19_0+0016-8f48a0f57b6
<configuration xmlns:xsi="http://www.w3.org/2001/XMLSchema-instance" xsi:noNamespaceSchemaLocation="http://sumo.dlr.de/xsd/duarouterConfiguration.xsd">

    <input>
        <net-file value="/home/david/Sumo/2024-01-30-16-30-21/osm.net.xml.gz"/>
        <route-files value="/home/david/Sumo/2024-01-30-16-30-21/osm.passenger.trips.xml"/>
    </input>

    <output>
        <output-file value="/home/david/Sumo/2024-01-30-16-30-21/osm.passenger.trips.xml.tmp"/>
        <alternatives-output value="NUL"/>
        <write-trips value="true"/>
    </output>

    <processing>
        <remove-loops value="true"/>
    </processing>

    <time>
        <begin value="0.0"/>
        <end value="3600.0"/>
    </time>

    <report>
        <no-warnings value="true"/>
        <ignore-errors value="true"/>
        <no-step-log value="true"/>
    </report>

</configuration>
-->

<routes xmlns:xsi="http://www.w3.org/2001/XMLSchema-instance" xsi:noNamespaceSchemaLocation="http://sumo.dlr.de/xsd/routes_file.xsd">
    <vType id="veh_passenger" vClass="passenger"/>
    <trip id="veh0" type="veh_passenger" depart="0.00" departLane="best" from="42201276#0" to="-241308404"/>
    <trip id="veh1" type="veh_passenger" depart="0.60" departLane="best" departSpeed="max" from="-514836100" to="1179951482#1"/>
    <trip id="veh2" type="veh_passenger" depart="1.21" departLane="best" departSpeed="max" from="48537876#0" to="48144960#4"/>
    <trip id="veh3" type="veh_passenger" depart="1.81" departLane="best" from="559912997#1" to="410645791"/>
    <trip id="veh4" type="veh_passenger" depart="2.41" departLane="best" from="-242293660#0" to="-242069348#3"/>
    <trip id="veh5" type="veh_passenger" depart="3.02" departLane="best" departSpeed="max" from="-475612442" to="402525979"/>
    <trip id="veh6" type="veh_passenger" depart="3.62" departLane="best" departSpeed="max" from="-1180352276" to="102321836#1"/>
    <trip id="veh7" type="veh_passenger" depart="4.22" departLane="best" from="42207958#1" to="404966383#1"/>
    <trip id="veh8" type="veh_passenger" depart="4.83" departLane="best" departSpeed="max" from="-476947029#1" to="42201260#0"/>
    <trip id="veh9" type="veh_passenger" depart="5.43" departLane="best" from="50557151" to="107415172#2"/>
    <trip id="veh10" type="veh_passenger" depart="6.03" departLane="best" from="494076767#3" to="48537831"/>
    <trip id="veh11" type="veh_passenger" depart="6.64" departLane="best" from="86484949#1" to="-61426882#3"/>
    <trip id="veh12" type="veh_passenger" depart="7.24" departLane="best" from="-86484905#1" to="-258715367"/>
    <trip id="veh13" type="veh_passenger" depart="7.84" departLane="best" departSpeed="max" from="-248268270" to="475312979#1"/>
    <trip id="veh14" type="veh_passenger" depart="8.45" departLane="best" from="542416847" to="42207935"/>
    <trip id="veh15" type="veh_passenger" depart="9.05" departLane="best" from="50367490#1" to="48581494"/>
    <trip id="veh16" type="veh_passenger" depart="9.65" departLane="best" from="397470319#0" to="894588797"/>
    <trip id="veh17" type="veh_passenger" depart="10.25" departLane="best" from="1180116730#1" to="40668068#0"/>
    <trip id="veh18" type="veh_passenger" depart="10.86" departLane="best" from="534903531#2" to="427719632#2"/>
    <trip id="veh19" type="veh_passenger" depart="11.46" departLane="best" from="544580387#1" to="42143234#1"/>
    <trip id="veh20" type="veh_passenger" depart="12.06" departLane="best" from="475886425#3" to="29223186#2"/>
    <trip id="veh21" type="veh_passenger" depart="12.67" departLane="best" departSpeed="max" from="-484829767" to="-241308402"/>
    <trip id="veh22" type="veh_passenger" depart="13.27" departLane="best" departSpeed="max" from="-242069257" to="-1180356718#0"/>
    <trip id="veh23" type="veh_passenger" depart="13.87" departLane="best" departSpeed="max" from="-259857604" to="241299721"/>
    <trip id="veh24" type="veh_passenger" depart="14.48" departLane="best" from="42201262#3" to="304027275#21"/>
    <trip id="veh25" type="veh_passenger" depart="15.08" departLane="best" from="1095244323#0" to="1095231261"/>
    <trip id="veh26" type="veh_passenger" depart="15.68" departLane="best" from="-48963734#1" to="82880732#3"/>
    <trip id="veh27" type="veh_passenger" depart="16.29" departLane="best" from="42207942#0" to="422705698#1"/>
    <trip id="veh28" type="veh_passenger" depart="16.89" departLane="best" departSpeed="max" from="-403000154" to="48581489"/>
    <trip id="veh29" type="veh_passenger" depart="17.49" departLane="best" from="402431111#1" to="304931613#6"/>
    <trip id="veh30" type="veh_passenger" depart="18.10" departLane="best" departSpeed="max" from="91013800#0" to="45426150#2"/>
    <trip id="veh31" type="veh_passenger" depart="18.70" departLane="best" from="-400449376#0" to="61429486#2"/>
    <trip id="veh32" type="veh_passenger" depart="19.30" departLane="best" from="542406710" to="492471412#1"/>
    <trip id="veh33" type="veh_passenger" depart="19.91" departLane="best" departSpeed="max" from="-485164522" to="-242293646"/>
    <trip id="veh34" type="veh_passenger" depart="20.51" departLane="best" from="-715918290#1" to="218811762#5"/>
    <trip id="veh35" type="veh_passenger" depart="21.11" departLane="best" from="-45393768#1" to="84618077#2"/>
    <trip id="veh36" type="veh_passenger" depart="21.72" departLane="best" from="552619450" to="242293667#0"/>
    <trip id="veh37" type="veh_passenger" depart="22.32" departLane="best" from="42456620#2" to="310114805#2"/>
    <trip id="veh38" type="veh_passenger" depart="22.92" departLane="best" from="61426885#3" to="397470322"/>
    <trip id="veh39" type="veh_passenger" depart="23.53" departLane="best" from="-48913915" to="-1190070844"/>
    <trip id="veh40" type="veh_passenger" depart="24.13" departLane="best" from="402179134" to="208769660"/>
    <trip id="veh41" type="veh_passenger" depart="24.73" departLane="best" from="403386101" to="614107731#2"/>
    <trip id="veh42" type="veh_passenger" depart="25.34" departLane="best" from="218811762#6" to="1178046266"/>
    <trip id="veh43" type="veh_passenger" depart="25.94" departLane="best" from="98607708#0" to="402795887"/>
    <trip id="veh44" type="veh_passenger" depart="26.54" departLane="best" from="242293674#2" to="-304027275#15"/>
    <trip id="veh45" type="veh_passenger" depart="27.14" departLane="best" departSpeed="max" from="-283122516#2" to="45393773#1"/>
    <trip id="veh46" type="veh_passenger" depart="27.75" departLane="best" from="49217109#3" to="338566778#1"/>
    <trip id="veh47" type="veh_passenger" depart="28.35" departLane="best" from="-241308377" to="304931621"/>
    <trip id="veh48" type="veh_passenger" depart="28.95" departLane="best" from="893247430" to="553296219#0"/>
    <trip id="veh50" type="veh_passenger" depart="30.16" departLane="best" from="45426150#2" to="404412742"/>
    <trip id="veh51" type="veh_passenger" depart="30.76" departLane="best" from="-48963734#0" to="45427977#3"/>
    <trip id="veh52" type="veh_passenger" depart="31.37" departLane="best" from="-304027273#2" to="362156554#0"/>
    <trip id="veh53" type="veh_passenger" depart="31.97" departLane="best" departSpeed="max" from="283122516#0" to="86484916"/>
    <trip id="veh54" type="veh_passenger" depart="32.57" departLane="best" from="552616903" to="208769662#2"/>
    <trip id="veh55" type="veh_passenger" depart="33.18" departLane="best" from="337277981#2" to="-893268806"/>
    <trip id="veh56" type="veh_passenger" depart="33.78" departLane="best" from="61426879#1" to="554582108#8"/>
    <trip id="veh57" type="veh_passenger" depart="34.38" departLane="best" departSpeed="max" from="-605045761" to="45424969#1"/>
    <trip id="veh58" type="veh_passenger" depart="34.99" departLane="best" from="40668089#3" to="-61426871#1"/>
    <trip id="veh59" type="veh_passenger" depart="35.59" departLane="best" from="48859295#4" to="404946324#1"/>
    <trip id="veh60" type="veh_passenger" depart="36.19" departLane="best" departSpeed="max" from="48903079" to="403869582#4"/>
    <trip id="veh61" type="veh_passenger" depart="36.80" departLane="best" departSpeed="max" from="-101886657" to="250033169"/>
    <trip id="veh62" type="veh_passenger" depart="37.40" departLane="best" departSpeed="max" from="-1179951483" to="79872785#1"/>
    <trip id="veh63" type="veh_passenger" depart="38.00" departLane="best" from="553296219#0" to="542537665"/>
    <trip id="veh64" type="veh_passenger" depart="38.61" departLane="best" departSpeed="max" from="-617290019" to="320862699"/>
    <trip id="veh65" type="veh_passenger" depart="39.21" departLane="best" from="552646975#1" to="-86134858#7"/>
    <trip id="veh66" type="veh_passenger" depart="39.81" departLane="best" departSpeed="max" from="-242074466" to="400449634#4"/>
    <trip id="veh67" type="veh_passenger" depart="40.42" departLane="best" departSpeed="max" from="-241515818" to="48962884#5"/>
    <trip id="veh68" type="veh_passenger" depart="41.02" departLane="best" departSpeed="max" from="48864702" to="48913907#2"/>
    <trip id="veh69" type="veh_passenger" depart="41.62" departLane="best" from="-305047845#3" to="-406209024"/>
    <trip id="veh70" type="veh_passenger" depart="42.23" departLane="best" from="-48913918#1" to="558903818#1"/>
    <trip id="veh71" type="veh_passenger" depart="42.83" departLane="best" from="247044712#1" to="1118423674#0"/>
    <trip id="veh72" type="veh_passenger" depart="43.43" departLane="best" from="399285448#0" to="48581495"/>
    <trip id="veh73" type="veh_passenger" depart="44.03" departLane="best" departSpeed="max" from="-410350138" to="242282589#2"/>
    <trip id="veh74" type="veh_passenger" depart="44.64" departLane="best" from="97279526#4" to="46227733#0"/>
    <trip id="veh75" type="veh_passenger" depart="45.24" departLane="best" departSpeed="max" from="257862139" to="403003684"/>
    <trip id="veh76" type="veh_passenger" depart="45.84" departLane="best" departSpeed="max" from="-304931617" to="1180131814"/>
    <trip id="veh77" type="veh_passenger" depart="46.45" departLane="best" departSpeed="max" from="-86484936" to="42201259#6"/>
    <trip id="veh78" type="veh_passenger" depart="47.05" departLane="best" departSpeed="max" from="-485182256" to="1179654820"/>
    <trip id="veh79" type="veh_passenger" depart="47.65" departLane="best" departSpeed="max" from="-241515830" to="45393787#5"/>
    <trip id="veh80" type="veh_passenger" depart="48.26" departLane="best" departSpeed="max" from="-484829770" to="61429336#3"/>
    <trip id="veh81" type="veh_passenger" depart="48.86" departLane="best" from="542542889#1" to="402219380#1"/>
    <trip id="veh82" type="veh_passenger" depart="49.46" departLane="best" departSpeed="max" from="-48537859" to="478841481#3"/>
    <trip id="veh83" type="veh_passenger" depart="50.07" departLane="best" from="-45427986" to="503636474#5"/>
    <trip id="veh84" type="veh_passenger" depart="50.67" departLane="best" from="-748656873" to="420553735"/>
    <trip id="veh85" type="veh_passenger" depart="51.27" departLane="best" from="304931613#7" to="50562505"/>
    <trip id="veh86" type="veh_passenger" depart="51.88" departLane="best" from="-50370774#1" to="-98607700"/>
    <trip id="veh87" type="veh_passenger" depart="52.48" departLane="best" from="257861000#1" to="347760566"/>
    <trip id="veh88" type="veh_passenger" depart="53.08" departLane="best" from="247049837#1" to="399285452#1"/>
    <trip id="veh89" type="veh_passenger" depart="53.69" departLane="best" from="48537828#0" to="-48102262#2"/>
    <trip id="veh90" type="veh_passenger" depart="54.29" departLane="best" from="897172812" to="403123670#1"/>
    <trip id="veh91" type="veh_passenger" depart="54.89" departLane="best" from="240449701#4" to="264452213#12"/>
    <trip id="veh92" type="veh_passenger" depart="55.50" departLane="best" departSpeed="max" from="544580387#0" to="1237913757"/>
    <trip id="veh93" type="veh_passenger" depart="56.10" departLane="best" from="-404961940" to="397300508"/>
    <trip id="veh94" type="veh_passenger" depart="56.70" departLane="best" from="-242293660#0" to="241299723"/>
    <trip id="veh95" type="veh_passenger" depart="57.31" departLane="best" departSpeed="max" from="-48548765#1" to="712096992"/>
    <trip id="veh96" type="veh_passenger" depart="57.91" departLane="best" from="269102410#2" to="553308443#1"/>
    <trip id="veh97" type="veh_passenger" depart="58.51" departLane="best" from="400016016" to="-304931228#5"/>
    <trip id="veh98" type="veh_passenger" depart="59.12" departLane="best" departSpeed="max" from="98607732" to="542542878"/>
    <trip id="veh99" type="veh_passenger" depart="59.72" departLane="best" from="42141325" to="748656874"/>
    <trip id="veh100" type="veh_passenger" depart="60.32" departLane="best" from="542432520#0" to="-82880738#2"/>
    <trip id="veh101" type="veh_passenger" depart="60.93" departLane="best" from="-31960451" to="1148504188#2"/>
    <trip id="veh102" type="veh_passenger" depart="61.53" departLane="best" from="240449693#4" to="326566170#1"/>
    <trip id="veh103" type="veh_passenger" depart="62.13" departLane="best" from="-1180356110#0" to="91013793"/>
    <trip id="veh104" type="veh_passenger" depart="62.73" departLane="best" departSpeed="max" from="-48913922" to="50557150#0"/>
    <trip id="veh105" type="veh_passenger" depart="63.34" departLane="best" from="289834540" to="338566779#1"/>
    <trip id="veh106" type="veh_passenger" depart="63.94" departLane="best" from="-86484905#2" to="98607703"/>
    <trip id="veh107" type="veh_passenger" depart="64.54" departLane="best" from="400084632#1" to="48548036"/>
    <trip id="veh108" type="veh_passenger" depart="65.15" departLane="best" departSpeed="max" from="-398051548#1" to="241515847"/>
    <trip id="veh109" type="veh_passenger" depart="65.75" departLane="best" from="893240786#1" to="42143918#1"/>
    <trip id="veh110" type="veh_passenger" depart="66.35" departLane="best" from="399285453#1" to="48903049#9"/>
    <trip id="veh111" type="veh_passenger" depart="66.96" departLane="best" departSpeed="max" from="-241299705" to="42195044#5"/>
    <trip id="veh112" type="veh_passenger" depart="67.56" departLane="best" from="549772919#4" to="552447260"/>
    <trip id="veh113" type="veh_passenger" depart="68.16" departLane="best" from="-400449376#2" to="86485178"/>
    <trip id="veh114" type="veh_passenger" depart="68.77" departLane="best" departSpeed="max" from="-242069258" to="91011057#2"/>
    <trip id="veh115" type="veh_passenger" depart="69.37" departLane="best" from="404948898" to="-48137890#1"/>
    <trip id="veh117" type="veh_passenger" depart="70.58" departLane="best" from="558922364#1" to="1190067770"/>
    <trip id="veh118" type="veh_passenger" depart="71.18" departLane="best" from="404946393#2" to="445106174#1"/>
    <trip id="veh119" type="veh_passenger" depart="71.78" departLane="best" from="242075533" to="42195044#2"/>
    <trip id="veh120" type="veh_passenger" depart="72.39" departLane="best" from="389763220#2" to="815723563#1"/>
    <trip id="veh121" type="veh_passenger" depart="72.99" departLane="best" departSpeed="max" from="-420553736" to="48548027"/>
    <trip id="veh122" type="veh_passenger" depart="73.59" departLane="best" departSpeed="max" from="-48537863" to="310114805#2"/>
    <trip id="veh123" type="veh_passenger" depart="74.20" departLane="best" from="45393784#3" to="242069229#2"/>
    <trip id="veh124" type="veh_passenger" depart="74.80" departLane="best" departSpeed="max" from="-744687095" to="48903072"/>
    <trip id="veh125" type="veh_passenger" depart="75.40" departLane="best" departSpeed="max" from="-241515834" to="397470316"/>
    <trip id="veh126" type="veh_passenger" depart="76.01" departLane="best" from="98607719#1" to="98607708#0"/>
    <trip id="veh127" type="veh_passenger" depart="76.61" departLane="best" from="-241515839" to="1148281186#2"/>
    <trip id="veh128" type="veh_passenger" depart="77.21" departLane="best" departSpeed="max" from="-48913922" to="81508883#0"/>
    <trip id="veh129" type="veh_passenger" depart="77.82" departLane="best" from="553318161#0" to="59545685#1"/>
    <trip id="veh130" type="veh_passenger" depart="78.42" departLane="best" from="1079647159#1" to="628465848#1"/>
    <trip id="veh131" type="veh_passenger" depart="79.02" departLane="best" from="535613367#4" to="48537859"/>
    <trip id="veh132" type="veh_passenger" depart="79.62" departLane="best" from="40972463#2" to="91013808"/>
    <trip id="veh133" type="veh_passenger" depart="80.23" departLane="best" from="42453882#4" to="1095251278#0"/>
    <trip id="veh134" type="veh_passenger" depart="80.83" departLane="best" from="528156295" to="242069217#1"/>
    <trip id="veh135" type="veh_passenger" depart="81.43" departLane="best" from="45393761#0" to="82884817#3"/>
    <trip id="veh136" type="veh_passenger" depart="82.04" departLane="best" from="-314641202#5" to="-48556971#0"/>
    <trip id="veh137" type="veh_passenger" depart="82.64" departLane="best" departSpeed="max" from="-281865192" to="40668068#12"/>
    <trip id="veh138" type="veh_passenger" depart="83.24" departLane="best" departSpeed="max" from="-509965325" to="42207938#1"/>
    <trip id="veh139" type="veh_passenger" depart="83.85" departLane="best" from="48147639#1" to="107405952#2"/>
    <trip id="veh140" type="veh_passenger" depart="84.45" departLane="best" from="42201260#8" to="208769666"/>
    <trip id="veh141" type="veh_passenger" depart="85.05" departLane="best" from="329539307#2" to="61429336#3"/>
    <trip id="veh142" type="veh_passenger" depart="85.66" departLane="best" departSpeed="max" from="542416843#0" to="-45393773#5"/>
    <trip id="veh143" type="veh_passenger" depart="86.26" departLane="best" from="247049837#1" to="241299711"/>
    <trip id="veh144" type="veh_passenger" depart="86.86" departLane="best" from="-102321811#2" to="49222369#3"/>
    <trip id="veh145" type="veh_passenger" depart="87.47" departLane="best" from="42201266#2" to="208769658#0"/>
    <trip id="veh146" type="veh_passenger" depart="88.07" departLane="best" from="48538987" to="406261770#6"/>
    <trip id="veh147" type="veh_passenger" depart="88.67" departLane="best" from="250024018#0" to="1178046262"/>
    <trip id="veh148" type="veh_passenger" depart="89.28" departLane="best" departSpeed="max" from="-241515855" to="59833663"/>
    <trip id="veh149" type="veh_passenger" depart="89.88" departLane="best" from="60727908#2" to="405030854"/>
    <trip id="veh150" type="veh_passenger" depart="90.48" departLane="best" from="542393508#2" to="42181485#2"/>
    <trip id="veh151" type="veh_passenger" depart="91.09" departLane="best" departSpeed="max" from="-397369740" to="-48903081#2"/>
    <trip id="veh152" type="veh_passenger" depart="91.69" departLane="best" from="-62105985#7" to="61426867#2"/>
    <trip id="veh153" type="veh_passenger" depart="92.29" departLane="best" from="49222367#11" to="895272991#1"/>
    <trip id="veh154" type="veh_passenger" depart="92.90" departLane="best" from="604749601#1" to="1095251278#0"/>
    <trip id="veh155" type="veh_passenger" depart="93.50" departLane="best" departSpeed="max" from="-48548765#1" to="48203231#5"/>
    <trip id="veh156" type="veh_passenger" depart="94.10" departLane="best" from="48903087#0" to="59833664#1"/>
    <trip id="veh157" type="veh_passenger" depart="94.71" departLane="best" from="241299728#0" to="453516157#0"/>
    <trip id="veh158" type="veh_passenger" depart="95.31" departLane="best" departSpeed="max" from="-398051548#1" to="81508865#2"/>
    <trip id="veh159" type="veh_passenger" depart="95.91" departLane="best" from="548284678#3" to="894857822"/>
    <trip id="veh160" type="veh_passenger" depart="96.51" departLane="best" departSpeed="max" from="510583030" to="59830980#0"/>
    <trip id="veh161" type="veh_passenger" depart="97.12" departLane="best" departSpeed="max" from="-1180352270" to="48859314#0"/>
    <trip id="veh162" type="veh_passenger" depart="97.72" departLane="best" from="-86484904" to="81508868#5"/>
    <trip id="veh163" type="veh_passenger" depart="98.32" departLane="best" from="492471758#1" to="553331427"/>
    <trip id="veh164" type="veh_passenger" depart="98.93" departLane="best" departSpeed="max" from="510583030" to="217059189"/>
    <trip id="veh165" type="veh_passenger" depart="99.53" departLane="best" from="48915053#1" to="-48538962#0"/>
    <trip id="veh166" type="veh_passenger" depart="100.13" departLane="best" from="552455433" to="552619450"/>
    <trip id="veh167" type="veh_passenger" depart="100.74" departLane="best" from="-48102262#7" to="542393635#1"/>
    <trip id="veh168" type="veh_passenger" depart="101.34" departLane="best" from="300733514#2" to="242069299#1"/>
    <trip id="veh169" type="veh_passenger" depart="101.94" departLane="best" from="49222366#5" to="1180174775#1"/>
    <trip id="veh170" type="veh_passenger" depart="102.55" departLane="best" departSpeed="max" from="-1180174778" to="101459744"/>
    <trip id="veh171" type="veh_passenger" depart="103.15" departLane="best" from="84719882#2" to="542393522"/>
    <trip id="veh172" type="veh_passenger" depart="103.75" departLane="best" from="893218834#4" to="241299727"/>
    <trip id="veh173" type="veh_passenger" depart="104.36" departLane="best" from="42201277#1" to="314641202#2"/>
    <trip id="veh174" type="veh_passenger" depart="104.96" departLane="best" from="895021244" to="404316078"/>
    <trip id="veh175" type="veh_passenger" depart="105.56" departLane="best" from="81508865#3" to="-48548766#2"/>
    <trip id="veh176" type="veh_passenger" depart="106.17" departLane="best" from="893245580#0" to="893268805"/>
    <trip id="veh177" type="veh_passenger" depart="106.77" departLane="best" from="86484947#2" to="208781828"/>
    <trip id="veh178" type="veh_passenger" depart="107.37" departLane="best" departSpeed="max" from="-283122504" to="360625700"/>
    <trip id="veh179" type="veh_passenger" depart="107.98" departLane="best" from="48537825" to="242293620"/>
    <trip id="veh180" type="veh_passenger" depart="108.58" departLane="best" from="40668076#1" to="402801839#4"/>
    <trip id="veh181" type="veh_passenger" depart="109.18" departLane="best" from="1240059933#1" to="42141924#4"/>
    <trip id="veh182" type="veh_passenger" depart="109.79" departLane="best" departSpeed="max" from="-48581489" to="48538973#0"/>
    <trip id="veh183" type="veh_passenger" depart="110.39" departLane="best" departSpeed="max" from="-102321728#12" to="740080580#5"/>
    <trip id="veh184" type="veh_passenger" depart="110.99" departLane="best" departSpeed="max" from="397524543" to="48548047"/>
    <trip id="veh186" type="veh_passenger" depart="112.20" departLane="best" from="102327035#2" to="400907051#0"/>
    <trip id="veh187" type="veh_passenger" depart="112.80" departLane="best" from="45393762#1" to="252683992#1"/>
    <trip id="veh188" type="veh_passenger" depart="113.41" departLane="best" departSpeed="max" from="-690734041#1" to="-549778901#5"/>
    <trip id="veh189" type="veh_passenger" depart="114.01" departLane="best" from="48203216#1" to="242069235#1"/>
    <trip id="veh190" type="veh_passenger" depart="114.61" departLane="best" departSpeed="max" from="-635408173" to="334948974#0"/>
    <trip id="veh191" type="veh_passenger" depart="115.21" departLane="best" from="240449701#1" to="241515842"/>
    <trip id="veh192" type="veh_passenger" depart="115.82" departLane="best" departSpeed="max" from="-305293739#1" to="337895453#3"/>
    <trip id="veh193" type="veh_passenger" depart="116.42" departLane="best" from="81508871#2" to="48144962#2"/>
    <trip id="veh194" type="veh_passenger" depart="117.02" departLane="best" from="60727516#0" to="42492699#6"/>
    <trip id="veh195" type="veh_passenger" depart="117.63" departLane="best" departSpeed="max" from="-606419594" to="-405513787#0"/>
    <trip id="veh196" type="veh_passenger" depart="118.23" departLane="best" from="-101460267#2" to="241308388"/>
    <trip id="veh197" type="veh_passenger" depart="118.83" departLane="best" from="250129556" to="42143918#16"/>
    <trip id="veh198" type="veh_passenger" depart="119.44" departLane="best" from="42454301#2" to="398614657"/>
    <trip id="veh199" type="veh_passenger" depart="120.04" departLane="best" from="334968123#0" to="1148504188#1"/>
    <trip id="veh200" type="veh_passenger" depart="120.64" departLane="best" from="304931614" to="61426873#2"/>
    <trip id="veh201" type="veh_passenger" depart="121.25" departLane="best" from="49222367#10" to="-84012040"/>
    <trip id="veh202" type="veh_passenger" depart="121.85" departLane="best" from="-242069339#2" to="403002801#1"/>
    <trip id="veh203" type="veh_passenger" depart="122.45" departLane="best" from="42201260#3" to="257862138"/>
    <trip id="veh204" type="veh_passenger" depart="123.06" departLane="best" from="532135453#0" to="48903065"/>
    <trip id="veh205" type="veh_passenger" depart="123.66" departLane="best" from="45393791#1" to="1180131814"/>
    <trip id="veh206" type="veh_passenger" depart="124.26" departLane="best" departSpeed="max" from="-406976393" to="-241308382"/>
    <trip id="veh207" type="veh_passenger" depart="124.87" departLane="best" departSpeed="max" from="-48548015#1" to="400014711#2"/>
    <trip id="veh208" type="veh_passenger" depart="125.47" departLane="best" from="542537651" to="402762623#0"/>
    <trip id="veh209" type="veh_passenger" depart="126.07" departLane="best" from="242069217#1" to="45393784#0"/>
    <trip id="veh210" type="veh_passenger" depart="126.68" departLane="best" departSpeed="max" from="-405513788" to="48537822"/>
    <trip id="veh211" type="veh_passenger" depart="127.28" departLane="best" from="334948975#7" to="118366335#3"/>
    <trip id="veh212" type="veh_passenger" depart="127.88" departLane="best" from="42456625#3" to="107405952#1"/>
    <trip id="veh213" type="veh_passenger" depart="128.49" departLane="best" from="48548056#5" to="49222367#10"/>
    <trip id="veh214" type="veh_passenger" depart="129.09" departLane="best" from="274985653#1" to="338566787#0"/>
    <trip id="veh215" type="veh_passenger" depart="129.69" departLane="best" departSpeed="max" from="-403192338" to="86484940#0"/>
    <trip id="veh216" type="veh_passenger" depart="130.30" departLane="best" from="368497498#0" to="-304931228#0"/>
    <trip id="veh217" type="veh_passenger" depart="130.90" departLane="best" from="29223062#7" to="533787302"/>
    <trip id="veh218" type="veh_passenger" depart="131.50" departLane="best" from="45393772#2" to="-91013813#1"/>
    <trip id="veh219" type="veh_passenger" depart="132.10" departLane="best" from="-404950433#3" to="-86484901#2"/>
    <trip id="veh220" type="veh_passenger" depart="132.71" departLane="best" from="612320334#4" to="42456625#0"/>
    <trip id="veh221" type="veh_passenger" depart="133.31" departLane="best" from="48203215#1" to="402525975#0"/>
    <trip id="veh222" type="veh_passenger" depart="133.91" departLane="best" from="-534903539#4" to="405513786#2"/>
    <trip id="veh223" type="veh_passenger" depart="134.52" departLane="best" from="59833642" to="-48903023#2"/>
    <trip id="veh224" type="veh_passenger" depart="135.12" departLane="best" from="-48548040#1" to="45393819#3"/>
    <trip id="veh225" type="veh_passenger" depart="135.72" departLane="best" departSpeed="max" from="48864702" to="403186229"/>
    <trip id="veh226" type="veh_passenger" depart="136.33" departLane="best" from="42195042#0" to="241299706"/>
    <trip id="veh227" type="veh_passenger" depart="136.93" departLane="best" from="-242069235#1" to="241308385"/>
    <trip id="veh228" type="veh_passenger" depart="137.53" departLane="best" departSpeed="max" from="-509965322" to="248268270"/>
    <trip id="veh229" type="veh_passenger" depart="138.14" departLane="best" from="424827044#0" to="-534604434#0"/>
    <trip id="veh230" type="veh_passenger" depart="138.74" departLane="best" from="476947029#0" to="-346356362#2"/>
    <trip id="veh231" type="veh_passenger" depart="139.34" departLane="best" from="241308375#1" to="404961427"/>
    <trip id="veh232" type="veh_passenger" depart="139.95" departLane="best" from="-242069237#1" to="1079647159#0"/>
    <trip id="veh233" type="veh_passenger" depart="140.55" departLane="best" from="242293611#0" to="61429335"/>
    <trip id="veh234" type="veh_passenger" depart="141.15" departLane="best" from="403192339" to="48537816#0"/>
    <trip id="veh235" type="veh_passenger" depart="141.76" departLane="best" from="542542880#4" to="49217107"/>
    <trip id="veh236" type="veh_passenger" depart="142.36" departLane="best" from="118366335#1" to="107405952#6"/>
    <trip id="veh237" type="veh_passenger" depart="142.96" departLane="best" departSpeed="max" from="-91013808" to="48903086#0"/>
    <trip id="veh238" type="veh_passenger" depart="143.57" departLane="best" departSpeed="max" from="542542864" to="86484915"/>